data/inputs/nesta_case2868_rte.m
%%%%%%%%%%%%%%%%%%%%%%%%%%%%%%%%%%%%%%%%%%%%%%%%%%%%%%%%%%%%%%%%%%%%%%%%%%%
%%%%                                                                  %%%%%
%%%%      NICTA Energy System Test Case Archive (NESTA) - v0.7.0      %%%%%
%%%%              Optimal Power Flow - Typical Operation              %%%%%
%%%%                         05 - June - 2017                         %%%%%
%%%%                                                                  %%%%%
%%%%%%%%%%%%%%%%%%%%%%%%%%%%%%%%%%%%%%%%%%%%%%%%%%%%%%%%%%%%%%%%%%%%%%%%%%%
%
%CASE2868RTE
%   AC Power flow data for French system.
%   Please see CASEFORMAT for details on the case file format.
%
%   This case accurately represents the size and complexity of French
%   very high voltage transmission network.
%   Part of this data was sampled in the offline platform of iTesla.
%   These data can be used to validate mathematical methods and tools.
%   These data should NOT be used for operation
%   nor planning of the French or European grids.
%
%   When publishing results using this data, please cite:
%     C. Josz, S. Fliscounakis, J. Maeght, and P. Panciatici,
%     "AC Power Flow Data in MATPOWER and QCQP Format: iTesla, RTE Snapshots, and PEGASE"
%     http://arxiv.org/abs/1603.01533
%
%   Contacts (primary contact for this file : Jean Maeght):
%   Cédric Josz, Stéphane Fliscounakis, Jean Maeght, Patrick Panciatici
%   firstname.lastname@rte-france.com
%   Réseau de Transport d'Electricité (French Transmission System Operator)
%   Département Expertise Système, Immeuble "Le Colbert"
%   9 rue de la Porte de Buc, 78000 Versailles Cedex, France
%   March 4th, 2016
%
function mpc = nesta_case2868_rte
mpc.version = '2';
mpc.baseMVA = 100.0;

%% bus data
%	bus_i	type	Pd	Qd	Gs	Bs	area	Vm	Va	baseKV	zone	Vmax	Vmin
mpc.bus = [
	1	 1	 -18.5	 0.0	 0.0	 0.0	 1	    1.05156	   -7.30381	 63.0	 1	    1.06349	    0.93651;
	2	 1	 11.8	 0.6	 0.0	 0.0	 1	    1.07992	  -10.31118	 225.0	 1	    1.08889	    0.88889;
	3	 1	 0.0	 0.0	 0.0	 0.0	 1	    1.08925	   -0.61227	 380.0	 1	    1.10263	    1.00000;
	4	 1	 0.0	 0.0	 0.0	 0.0	 1	    1.04162	  -10.87528	 63.0	 1	    1.07937	    0.92063;
	5	 1	 0.2	 -0.2	 0.0	 0.0	 1	    0.94347	   -3.93428	 45.0	 1	    1.00000	    0.88889;
	6	 1	 5.6	 -19.0	 0.0	 0.0	 1	    0.94423	   -3.97067	 45.0	 1	    1.00000	    0.88889;
	7	 1	 223.6	 7.6	 0.0	 0.0	 1	    1.07870	   -7.12708	 225.0	 1	    1.08444	    1.00000;
	8	 1	 68.6	 7.6	 0.0	 0.0	 1	    1.03273	   -9.85374	 63.0	 1	    1.06349	    0.96825;
	10	 1	 0.0	 0.0	 0.0	 0.0	 1	    1.06218	   -2.67910	 150.0	 1	    1.10667	    0.90000;
	11	 1	 49.1	 0.9	 0.0	 0.0	 1	    1.07166	   -3.91775	 225.0	 1	    1.08889	    0.93333;
	2571	 1	 34.0	 14.4	 0.0	 0.0	 1	    1.07344	   -5.01788	 225.0	 1	    1.08889	    0.93333;
	12	 1	 0.0	 0.0	 0.0	 0.0	 1	    1.08617	   -4.37991	 380.0	 1	    1.10526	    1.00000;
	2572	 1	 0.0	 0.0	 0.0	 0.0	 1	    1.09138	   -4.62718	 380.0	 1	    1.10526	    1.00000;
	13	 1	 0.0	 0.0	 0.0	 0.0	 1	    1.08044	  -15.29080	 225.0	 1	    1.09067	    1.00000;
	14	 1	 0.2	 -1.1	 0.0	 0.0	 1	    1.01188	  -14.71393	 63.0	 1	    1.06349	    0.93651;
	15	 1	 10.3	 -0.2	 0.0	 0.0	 1	    1.02875	  -12.05306	 63.0	 1	    1.06349	    0.93651;
	16	 1	 189.8	 54.4	 0.0	 0.0	 1	    1.06270	   -9.54357	 225.0	 1	    1.08889	    0.93333;
	17	 1	 54.5	 13.1	 0.0	 0.0	 1	    1.08781	  -16.61680	 225.0	 1	    1.08889	    1.00000;
	18	 1	 67.6	 23.2	 0.0	 0.0	 1	    1.08343	  -13.85045	 225.0	 1	    1.08962	    1.00000;
	19	 2	 0.0	 0.0	 0.0	 0.0	 1	    1.07197	   -5.46293	 63.0	 1	    1.08661	    0.92063;
	20	 1	 150.5	 40.0	 0.0	 0.0	 1	    1.08758	  -16.61749	 225.0	 1	    1.08889	    1.00000;
	21	 1	 78.1	 6.2	 0.0	 0.0	 1	    1.08719	   -7.36050	 225.0	 1	    1.08889	    0.88889;
	22	 1	 15.0	 -9.4	 0.0	 0.0	 1	    1.01933	  -18.77634	 63.0	 1	    1.07249	    0.93651;
	23	 1	 50.9	 6.0	 0.0	 0.0	 1	    1.01516	  -13.57183	 63.0	 1	    1.06349	    0.93651;
	24	 1	 0.0	 0.0	 0.0	 0.0	 1	    1.08889	   -3.76417	 225.0	 1	    1.08889	    1.00000;
	2573	 1	 0.0	 0.0	 0.0	 0.0	 1	    1.08889	   -3.76417	 225.0	 1	    1.08889	    1.00000;
	25	 1	 65.1	 1.6	 0.0	 0.0	 1	    1.08727	   -7.40854	 225.0	 1	    1.08889	    0.88889;
	26	 1	 1.6	 -4.2	 0.0	 0.0	 1	    1.07902	   -4.79565	 225.0	 1	    1.09649	    0.98667;
	27	 1	 42.8	 2.3	 0.0	 0.0	 1	    1.02906	  -14.00559	 63.0	 1	    1.06349	    0.93651;
	28	 1	 39.4	 15.5	 0.0	 0.0	 1	    1.07201	  -16.02731	 225.0	 1	    1.08889	    1.00000;
	2574	 1	 42.2	 12.4	 0.0	 0.0	 1	    1.07200	  -16.02766	 225.0	 1	    1.08889	    1.00000;
	29	 1	 11.4	 0.5	 0.0	 0.0	 1	    1.02802	  -11.74118	 63.0	 1	    1.06349	    0.93651;
	30	 1	 72.7	 36.5	 0.0	 0.0	 1	    1.07473	  -12.84106	 225.0	 1	    1.08889	    1.00000;
	31	 1	 2.7	 -1.4	 0.0	 0.0	 1	    1.05495	   -6.76891	 63.0	 1	    1.07211	    0.93651;
	32	 1	 13.8	 -0.4	 0.0	 0.0	 1	    1.04205	  -13.03383	 63.0	 1	    1.06349	    0.93651;
	33	 1	 2.0	 -0.5	 0.0	 0.0	 1	    0.94264	   -4.38469	 45.0	 1	    1.00000	    0.88889;
	34	 1	 0.4	 0.0	 0.0	 0.0	 1	    0.94321	   -3.96423	 45.0	 1	    1.00000	    0.88889;
	35	 1	 30.4	 3.0	 0.0	 0.0	 1	    1.03214	  -12.81459	 63.0	 1	    1.06349	    0.96825;
	36	 1	 1.9	 -3.1	 0.0	 0.0	 1	    1.00000	   -5.71613	 45.0	 1	    1.00000	    0.88889;
	37	 1	 18.9	 0.9	 0.0	 0.0	 1	    1.05035	  -10.07982	 63.0	 1	    1.06349	    0.93651;
	38	 2	 0.0	 0.0	 0.0	 0.0	 1	    1.04343	   -3.75764	 63.0	 1	    1.07937	    0.95238;
	39	 1	 99.3	 18.8	 0.0	 0.0	 1	    1.07812	  -10.62037	 225.0	 1	    1.08934	    0.98667;
	40	 1	 38.7	 0.9	 0.0	 0.0	 1	    1.07284	   -9.85096	 225.0	 1	    1.08889	    0.88889;
	41	 1	 89.8	 13.0	 0.0	 0.0	 1	    1.08201	  -19.71228	 225.0	 1	    1.08444	    1.00000;
	42	 1	 63.9	 9.7	 0.0	 0.0	 1	    1.04544	   -8.26736	 63.0	 1	    1.06370	    0.93651;
	43	 1	 0.0	 0.0	 0.0	 0.0	 1	    1.05783	   -6.23799	 225.0	 1	    1.08889	    0.93333;
	44	 1	 33.1	 -6.5	 0.0	 0.0	 1	    1.03417	  -11.03355	 63.0	 1	    1.06349	    0.96825;
	45	 1	 168.4	 34.9	 0.0	 0.0	 1	    1.07416	  -13.34854	 225.0	 1	    1.08889	    1.00000;
	46	 1	 0.0	 0.0	 0.0	 0.0	 1	    1.08927	   -0.56899	 380.0	 1	    1.10526	    1.00000;
	2575	 1	 0.0	 0.0	 0.0	 0.0	 1	    1.08931	   -0.59696	 380.0	 1	    1.10526	    1.00000;
	47	 1	 29.5	 4.5	 0.0	 0.0	 1	    1.04042	   -7.46602	 63.0	 1	    1.06606	    0.93651;
	48	 1	 1.6	 0.0	 0.0	 0.0	 1	    1.05384	   -7.49417	 63.0	 1	    1.06735	    0.93651;
	49	 1	 14.9	 10.4	 0.0	 0.0	 1	    1.05313	   -5.53648	 63.0	 1	    1.06349	    0.96825;
	2576	 1	 9.9	 7.2	 0.0	 0.0	 1	    1.05389	   -5.97773	 63.0	 1	    1.06349	    0.96825;
	50	 1	 0.0	 0.0	 0.0	 0.0	 1	    1.08236	   -4.00644	 225.0	 1	    1.08444	    1.00000;
	51	 1	 114.9	 20.2	 0.0	 0.0	 1	    1.08154	   -6.41051	 225.0	 1	    1.08444	    1.00000;
	52	 1	 0.0	 0.0	 0.0	 0.0	 1	    1.08884	  -16.44653	 225.0	 1	    1.08889	    1.00000;
	2942	 1	 106.0	 29.6	 0.0	 0.0	 1	    1.05156	  -16.58424	 225.0	 1	    1.08889	    1.00000;
	53	 2	 5.7	 -6.6	 0.0	 0.0	 1	    1.03094	   -5.46758	 63.0	 1	    1.06349	    0.96825;
	54	 1	 0.0	 0.0	 0.0	 0.0	 1	    1.06394	   -4.89226	 150.0	 1	    1.08000	    0.96667;
	55	 1	 65.6	 18.0	 0.0	 80.0	 1	    1.05967	   -2.39304	 225.0	 1	    1.09459	    1.00000;
	56	 1	 0.0	 0.0	 0.0	 0.0	 1	    1.07138	    0.12244	 380.0	 1	    1.10526	    1.00000;
	57	 1	 146.4	 39.1	 0.0	 0.0	 1	    1.06963	  -13.56733	 225.0	 1	    1.08889	    0.98667;
	59	 1	 78.7	 21.1	 0.0	 0.0	 1	    1.08812	   -7.17621	 225.0	 1	    1.08889	    0.96889;
	60	 1	 125.2	 37.6	 0.0	 0.0	 1	    1.09284	   -4.89746	 380.0	 1	    1.10526	    1.00000;
	61	 1	 6.0	 1.0	 0.0	 0.0	 1	    1.04704	   -9.90942	 63.0	 1	    1.06349	    0.93651;
	63	 1	 36.1	 4.7	 0.0	 7.7	 1	    1.02289	  -10.82690	 63.0	 1	    1.06349	    0.96825;
	2577	 1	 0.0	 0.0	 0.0	 0.0	 1	    1.02282	  -12.07847	 63.0	 1	    1.06349	    0.96825;
	64	 1	 53.3	 13.4	 0.0	 0.0	 1	    1.07665	   -7.56124	 225.0	 1	    1.08889	    0.93333;
	65	 1	 0.0	 0.0	 0.0	 0.0	 1	    1.02279	  -12.08429	 63.0	 1	    1.06349	    0.96825;
	66	 1	 43.4	 -0.7	 0.0	 0.0	 1	    0.91988	   -7.04949	 45.0	 1	    1.00000	    0.88889;
	2578	 2	 0.0	 0.0	 0.0	 0.0	 1	    0.99219	   -6.12661	 45.0	 1	    1.00000	    0.88889;
	67	 1	 41.3	 12.8	 0.0	 0.0	 1	    1.07724	   -8.87474	 225.0	 1	    1.08889	    0.88889;
	2579	 1	 38.5	 8.5	 0.0	 0.0	 1	    1.07744	   -8.86959	 225.0	 1	    1.08889	    0.88889;
	68	 1	 19.6	 3.7	 0.0	 0.0	 1	    1.07549	  -12.94915	 20.0	 1	    1.20000	    0.80000;
	69	 1	 320.7	 74.9	 0.0	 0.0	 1	    1.07553	  -12.94118	 225.0	 1	    1.08685	    1.00000;
	70	 1	 140.9	 -22.3	 0.0	 0.0	 1	    1.08026	  -14.39642	 225.0	 1	    1.08889	    1.00000;
	71	 2	 0.0	 0.0	 0.0	 0.0	 1	    1.10080	   -4.45506	 150.0	 1	    1.10885	    0.90000;
	72	 1	 0.0	 0.0	 0.0	 0.0	 1	    1.08827	  -15.88947	 225.0	 1	    1.08889	    1.00000;
	2580	 1	 0.0	 0.0	 0.0	 0.0	 1	    1.08827	  -15.88946	 225.0	 1	    1.08889	    1.00000;
	74	 1	 0.0	 0.0	 0.0	 0.0	 1	    1.08827	  -15.88946	 225.0	 1	    1.08889	    1.00000;
	75	 1	 15.6	 3.0	 0.0	 0.0	 1	    1.04226	   -8.27054	 63.0	 1	    1.06349	    0.93651;
	76	 2	 0.0	 0.0	 0.0	 0.0	 1	    0.95321	   -3.76229	 45.0	 1	    1.00000	    0.88889;
	77	 1	 6.4	 0.3	 0.0	 0.0	 1	    1.07345	   -5.49709	 63.0	 1	    1.08481	    0.92063;
	78	 1	 4.8	 2.4	 0.0	 0.0	 1	    1.07417	  -13.89087	 225.0	 1	    1.08889	    1.00000;
	79	 1	 17.4	 1.7	 0.0	 15.0	 1	    1.05448	  -18.81655	 63.0	 1	    1.07937	    0.92063;
	80	 1	 10.0	 -0.6	 0.0	 0.0	 1	    1.01278	  -11.86715	 63.0	 1	    1.08744	    0.92063;
	81	 1	 0.0	 0.0	 0.0	 0.0	 1	    1.07787	   -8.97826	 225.0	 1	    1.08889	    1.00000;
	82	 1	 63.1	 25.3	 0.0	 0.0	 1	    1.07089	  -10.10468	 225.0	 1	    1.08889	    0.88889;
	83	 1	 44.1	 1.9	 0.0	 0.0	 1	    1.01202	  -17.28914	 63.0	 1	    1.06349	    0.96740;
	84	 1	 162.3	 51.1	 0.0	 0.0	 1	    1.07612	   -5.66898	 225.0	 1	    1.08889	    0.96889;
	85	 1	 0.0	 0.0	 0.0	 0.0	 1	    1.09023	   -2.47769	 380.0	 1	    1.10526	    1.00000;
	86	 1	 58.3	 14.1	 0.0	 0.0	 1	    1.02087	  -14.74211	 63.0	 1	    1.06349	    0.96825;
	87	 1	 32.5	 4.6	 0.0	 0.0	 1	    1.01876	   -8.00420	 63.0	 1	    1.06349	    0.96825;
	88	 1	 1.5	 0.7	 0.0	 0.0	 1	    1.04055	   -7.68868	 63.0	 1	    1.06349	    0.96825;
	89	 1	 55.7	 8.3	 0.0	 0.0	 1	    1.03192	   -5.50529	 63.0	 1	    1.06349	    0.96825;
	2581	 1	 30.1	 12.2	 0.0	 0.0	 1	    1.03229	   -5.28633	 63.0	 1	    1.06349	    0.96825;
	90	 1	 0.0	 0.0	 0.0	 0.0	 1	    1.07825	   -5.21676	 225.0	 1	    1.08444	    1.00000;
	2582	 1	 0.0	 0.0	 0.0	 0.0	 1	    1.07820	   -5.24593	 225.0	 1	    1.08444	    1.00000;
	91	 1	 190.1	 8.0	 0.0	 0.0	 1	    1.07030	  -14.93226	 225.0	 1	    1.08889	    1.00000;
	92	 1	 36.8	 -8.5	 0.0	 0.0	 1	    1.08061	   -5.50991	 225.0	 1	    1.09041	    0.93333;
	93	 2	 0.0	 0.0	 0.0	 0.0	 1	    1.10037	   -4.55116	 150.0	 1	    1.10907	    0.90000;
	94	 1	 35.7	 55.7	 0.0	 0.0	 1	    1.08349	   -2.76212	 225.0	 1	    1.08444	    1.00000;
	2583	 1	 34.0	 3.2	 0.0	 0.0	 1	    1.08431	   -2.76880	 225.0	 1	    1.08444	    1.00000;
	95	 1	 0.0	 0.0	 0.0	 0.0	 1	    1.08446	   -3.21194	 225.0	 1	    1.08889	    0.97778;
	96	 1	 15.9	 4.1	 0.0	 0.0	 1	    1.08044	   -8.89742	 225.0	 1	    1.08889	    0.88889;
	97	 1	 40.4	 6.5	 0.0	 0.0	 1	    1.02553	  -12.23261	 63.0	 1	    1.06349	    0.96825;
	98	 1	 -3.5	 -1.6	 0.0	 0.0	 1	    1.06910	   -2.64756	 225.0	 1	    1.08889	    0.93333;
	99	 1	 18.2	 5.5	 0.0	 0.0	 1	    1.08050	  -15.32656	 225.0	 1	    1.08889	    1.00000;
	2584	 1	 33.2	 14.1	 0.0	 0.0	 1	    1.08236	  -14.09807	 225.0	 1	    1.08889	    1.00000;
	100	 1	 -17.2	 -4.3	 0.0	 0.0	 1	    1.07699	   -9.28850	 225.0	 1	    1.08889	    1.00000;
	101	 1	 24.4	 1.9	 0.0	 0.0	 1	    1.08551	   -9.41705	 225.0	 1	    1.08889	    0.98667;
	102	 1	 0.0	 0.0	 0.0	 80.0	 1	    1.08584	   -8.64685	 225.0	 1	    1.08889	    0.88889;
	2585	 1	 0.0	 0.0	 0.0	 0.0	 1	    1.07549	   -9.27544	 225.0	 1	    1.08889	    0.88889;
	103	 1	 0.0	 0.0	 0.0	 0.0	 1	    1.08707	   -5.41480	 380.0	 1	    1.10526	    1.00000;
	104	 1	 74.9	 14.3	 0.0	 0.0	 1	    1.07073	  -16.24423	 225.0	 1	    1.08889	    1.00000;
	2586	 1	 29.0	 6.8	 0.0	 0.0	 1	    1.08525	  -14.78239	 225.0	 1	    1.08889	    1.00000;
	105	 1	 11.4	 9.2	 0.0	 0.0	 1	    1.01933	  -10.88075	 63.0	 1	    1.07937	    0.92063;
	106	 1	 0.0	 0.0	 0.0	 0.0	 1	    1.07613	   -4.44897	 225.0	 1	    1.08889	    0.97778;
	2587	 1	 0.0	 0.0	 0.0	 0.0	 1	    1.07616	   -4.44836	 225.0	 1	    1.08889	    0.97778;
	107	 1	 5.7	 10.3	 0.0	 0.0	 1	    1.04924	   -8.11902	 63.0	 1	    1.06349	    0.96825;
	108	 1	 54.1	 1.9	 0.0	 0.0	 1	    1.07500	   -4.98592	 225.0	 1	    1.08444	    1.00000;
	109	 1	 0.0	 0.0	 0.0	 0.0	 1	    1.08222	   -8.72891	 225.0	 1	    1.08444	    1.00000;
	110	 1	 0.0	 0.0	 0.0	 0.0	 1	    1.09493	   -2.91471	 380.0	 1	    1.10263	    1.00000;
	111	 1	 103.3	 18.0	 0.0	 0.0	 1	    1.08194	   -8.78636	 225.0	 1	    1.08444	    1.00000;
	112	 1	 -1.5	 2.2	 0.0	 0.0	 1	    1.08442	  -13.68874	 225.0	 1	    1.09035	    1.00000;
	2588	 1	 16.5	 -0.1	 0.0	 0.0	 1	    1.08438	  -13.69835	 225.0	 1	    1.09035	    1.00000;
	113	 1	 47.0	 9.8	 0.0	 0.0	 1	    1.08455	   -5.43352	 225.0	 1	    1.08889	    0.88889;
	114	 1	 43.8	 0.6	 0.0	 0.0	 1	    1.03975	  -11.04889	 63.0	 1	    1.06349	    0.93651;
	115	 1	 16.4	 1.2	 0.0	 0.0	 1	    1.07958	   -8.82919	 225.0	 1	    1.08889	    0.88889;
	116	 1	 56.9	 18.9	 0.0	 0.0	 1	    1.08045	   -5.34174	 225.0	 1	    1.08889	    0.88889;
	117	 1	 3.2	 0.4	 0.0	 0.0	 1	    1.03609	   -8.77554	 63.0	 1	    1.06349	    0.96825;
	118	 1	 44.0	 10.0	 0.0	 0.0	 1	    1.03227	  -21.01106	 63.0	 1	    1.07937	    0.92063;
	119	 1	 28.5	 -5.1	 0.0	 0.0	 1	    1.03858	  -15.71815	 63.0	 1	    1.06349	    0.96825;
	120	 2	 0.0	 0.0	 0.0	 0.0	 1	    1.03319	   -8.92583	 63.0	 1	    1.06863	    0.93651;
	121	 1	 8.5	 3.1	 0.0	 0.0	 1	    1.04173	  -17.82312	 63.0	 1	    1.06349	    0.96825;
	2589	 1	 15.0	 6.8	 0.0	 0.0	 1	    1.04179	  -17.85367	 63.0	 1	    1.06349	    0.96825;
	122	 1	 142.7	 -26.6	 0.0	 0.0	 1	    1.07909	   -7.63325	 225.0	 1	    1.08889	    1.00000;
	123	 1	 32.4	 7.9	 0.0	 0.0	 1	    1.05331	  -14.38940	 63.0	 1	    1.07937	    0.92063;
	124	 2	 4.7	 -2.0	 0.0	 0.0	 1	    1.07339	   -5.88553	 63.0	 1	    1.08203	    0.92063;
	125	 1	 0.0	 0.0	 0.0	 0.0	 1	    1.07641	  -13.36720	 63.0	 1	    1.07937	    0.92063;
	126	 1	 0.0	 0.0	 0.0	 0.0	 1	    1.05079	   -6.92272	 225.0	 1	    1.08889	    1.00000;
	127	 1	 0.0	 0.0	 0.0	 0.0	 1	    1.09024	   -6.93639	 380.0	 1	    1.10526	    1.00000;
	128	 1	 26.4	 3.8	 0.0	 0.0	 1	    1.04835	   -7.70741	 63.0	 1	    1.06349	    0.93651;
	129	 2	 16.3	 7.5	 0.0	 0.0	 1	    1.04069	  -11.36092	 63.0	 1	    1.06349	    0.93651;
	130	 1	 10.9	 16.3	 0.0	 0.0	 1	    1.06839	  -11.73514	 63.0	 1	    1.07937	    0.92063;
	2955	 1	 0.0	 0.0	 0.0	 0.0	 1	    1.04455	  -13.80556	 63.0	 1	    1.07937	    0.92063;
	131	 1	 0.0	 0.0	 0.0	 0.0	 1	    1.07393	   -9.93473	 225.0	 1	    1.08889	    1.00000;
	132	 1	 139.1	 40.0	 0.0	 0.0	 1	    1.07398	  -10.14753	 225.0	 1	    1.08889	    1.00000;
	133	 2	 9.2	 3.6	 0.0	 0.0	 1	    1.05864	  -18.56654	 63.0	 1	    1.06538	    0.96825;
	134	 2	 0.0	 0.0	 0.0	 0.0	 1	    1.05845	  -10.95137	 150.0	 1	    1.08000	    0.96667;
	135	 2	 -14.9	 -4.8	 0.0	 0.0	 1	    1.03392	  -10.32362	 63.0	 1	    1.07937	    0.92063;
	136	 1	 31.7	 10.2	 0.0	 0.0	 1	    1.06314	   -9.32478	 225.0	 1	    1.08889	    0.98667;
	137	 1	 9.7	 -2.1	 0.0	 0.0	 1	    1.00728	   -7.65586	 63.0	 1	    1.06349	    0.96825;
	138	 1	 12.8	 5.8	 0.0	 0.0	 1	    1.07989	   -3.89447	 225.0	 1	    1.08444	    1.00000;
	140	 1	 0.0	 0.0	 0.0	 0.0	 1	    1.10274	   -1.03222	 380.0	 1	    1.10526	    1.00000;
	2590	 1	 0.0	 0.0	 0.0	 0.0	 1	    1.10271	   -1.04419	 380.0	 1	    1.10526	    1.00000;
	141	 1	 20.8	 1.1	 0.0	 0.0	 1	    1.08224	   -6.44367	 225.0	 1	    1.08889	    1.00000;
	142	 1	 10.3	 9.6	 0.0	 0.0	 1	    1.07586	  -11.41462	 225.0	 1	    1.08889	    1.00000;
	143	 1	 28.7	 2.3	 0.0	 0.0	 1	    1.03312	  -12.69036	 63.0	 1	    1.06349	    0.96825;
	144	 1	 82.9	 11.1	 0.0	 0.0	 1	    1.08589	   -7.64090	 150.0	 1	    1.10000	    0.90000;
	145	 1	 72.9	 0.2	 0.0	 0.0	 1	    1.08440	   -7.34021	 225.0	 1	    1.08925	    1.00000;
	146	 2	 -3.7	 -0.5	 0.0	 0.0	 1	    1.07220	  -16.06957	 225.0	 1	    1.08889	    1.00000;
	147	 1	 0.0	 0.0	 0.0	 0.0	 1	    1.07070	   -3.82185	 225.0	 1	    1.08889	    0.93333;
	148	 1	 0.0	 0.0	 0.0	 0.0	 1	    1.09170	   -4.56253	 380.0	 1	    1.10526	    1.00000;
	2591	 1	 0.0	 0.0	 0.0	 0.0	 1	    1.08711	   -4.30280	 380.0	 1	    1.10526	    1.00000;
	149	 1	 0.0	 0.0	 0.0	 0.0	 1	    1.08817	  -16.59208	 225.0	 1	    1.08889	    1.00000;
	2592	 1	 66.1	 19.5	 0.0	 0.0	 1	    1.04977	  -16.82209	 225.0	 1	    1.08889	    1.00000;
	150	 1	 0.0	 0.0	 0.0	 0.0	 1	    1.05894	   -8.82581	 225.0	 1	    1.08889	    0.98667;
	151	 1	 24.0	 9.7	 0.0	 0.0	 1	    1.08799	  -16.60465	 225.0	 1	    1.08889	    1.00000;
	153	 1	 137.1	 23.1	 0.0	 0.0	 1	    1.06812	   -5.61926	 225.0	 1	    1.08889	    0.93333;
	154	 1	 0.0	 0.0	 0.0	 0.0	 1	    1.09321	   -3.09884	 380.0	 1	    1.10526	    1.00000;
	155	 1	 55.3	 18.4	 0.0	 0.0	 1	    1.08380	   -5.88678	 225.0	 1	    1.08889	    1.00000;
	156	 1	 30.9	 4.2	 0.0	 0.0	 1	    1.04545	  -11.52648	 63.0	 1	    1.06503	    0.93651;
	157	 1	 2.4	 0.4	 0.0	 0.0	 1	    1.04972	   -8.73399	 63.0	 1	    1.06349	    0.96825;
	158	 1	 27.5	 2.2	 0.0	 0.0	 1	    1.04669	  -12.91902	 63.0	 1	    1.07937	    0.92063;
	159	 1	 24.3	 1.9	 0.0	 0.0	 1	    1.02032	  -15.41293	 63.0	 1	    1.06349	    0.96825;
	160	 1	 5.6	 3.0	 0.0	 0.0	 1	    1.03245	  -13.50072	 63.0	 1	    1.06349	    0.93651;
	161	 2	 0.0	 0.0	 0.0	 0.0	 1	    1.04908	   -8.42624	 63.0	 1	    1.15000	    0.80000;
	162	 1	 0.5	 -40.5	 0.0	 0.0	 1	    1.08370	  -13.52773	 225.0	 1	    1.09053	    1.00000;
	163	 1	 0.0	 0.0	 0.0	 0.0	 1	    1.04390	  -23.23174	 63.0	 1	    1.06349	    0.96825;
	164	 1	 109.3	 -1.7	 0.0	 0.0	 1	    1.08025	   -6.07816	 225.0	 1	    1.09791	    1.00000;
	165	 1	 187.3	 17.6	 0.0	 0.0	 1	    1.07780	   -7.32513	 225.0	 1	    1.08889	    0.98667;
	166	 1	 51.6	 6.2	 0.0	 0.0	 1	    1.04341	   -7.93708	 63.0	 1	    1.06349	    0.96825;
	167	 1	 119.3	 36.7	 0.0	 0.0	 1	    1.08045	  -15.28584	 225.0	 1	    1.09067	    1.00000;
	168	 1	 14.1	 -5.7	 0.0	 0.0	 1	    1.05446	  -10.39510	 63.0	 1	    1.06349	    0.93651;
	169	 1	 24.1	 -4.6	 0.0	 0.0	 1	    1.02904	  -10.13329	 63.0	 1	    1.06349	    0.96825;
	170	 1	 1.8	 0.3	 0.0	 0.0	 1	    1.04294	  -10.74125	 63.0	 1	    1.06822	    0.93651;
	171	 1	 181.5	 51.4	 0.0	 0.0	 1	    1.06685	  -10.51456	 225.0	 1	    1.08889	    0.92444;
	172	 2	 -0.0	 1.2	 0.0	 0.0	 1	    1.01626	   -6.31722	 63.0	 1	    1.06349	    0.96825;
	173	 1	 82.5	 15.9	 0.0	 0.0	 1	    1.09329	   -2.70566	 225.0	 1	    1.09616	    0.98667;
	174	 1	 0.0	 0.0	 0.0	 0.0	 1	    1.10135	   -1.49216	 380.0	 1	    1.10526	    1.00000;
	2998	 1	 0.0	 0.0	 0.0	 0.0	 1	    1.10202	   -2.31857	 380.0	 1	    1.10526	    1.00000;
	175	 1	 120.7	 -49.6	 0.0	 0.0	 1	    1.07427	  -16.83593	 225.0	 1	    1.08444	    1.00000;
	177	 1	 0.0	 0.0	 0.0	 0.0	 1	    0.99089	  -19.10271	 63.0	 1	    1.06349	    0.96086;
	178	 1	 0.0	 0.0	 0.0	 0.0	 1	    1.08444	  -18.53169	 225.0	 1	    1.08444	    1.00000;
	179	 1	 0.0	 0.0	 0.0	 0.0	 1	    1.07927	  -16.14692	 380.0	 1	    1.10263	    1.00000;
	180	 1	 5.0	 0.6	 0.0	 0.0	 1	    1.06812	   -5.64552	 225.0	 1	    1.08889	    0.93333;
	181	 1	 -3.0	 -14.3	 0.0	 0.0	 1	    0.96700	   -3.39552	 45.0	 1	    1.01652	    0.88889;
	182	 1	 0.0	 0.0	 0.0	 0.0	 1	    1.04732	   -9.87465	 63.0	 1	    1.06349	    0.93651;
...
];

%% generator data
%	bus	Pg	Qg	Qmax	Qmin	Vg	mBase	status	Pmax	Pmin	Pc1	Pc2	Qc1min	Qc1max	Qc2min	Qc2max	ramp_agc	ramp_10	ramp_30	ramp_q	apf
mpc.gen = [
	1279	 0.0	 0.0	 15.0	 -15.0	 1.08227	 100.0	 0	 35.0	 7.0	 0.0	 0.0	 0.0	 0.0	 0.0	 0.0	 0.0	 0.0	 0.0	 0.0	 0.0;
	1210	 36.1	 13.395	 20.0	 -15.0	 1.12552	 100.0	 1	 36.1	 7.22	 0.0	 0.0	 0.0	 0.0	 0.0	 0.0	 0.0	 0.0	 0.0	 0.0	 0.0;
	751	 9.2	 13.771	 21.0	 -9.0	 1.04333	 100.0	 1	 46.0	 9.2	 0.0	 0.0	 0.0	 0.0	 0.0	 0.0	 0.0	 0.0	 0.0	 0.0	 0.0;
	2777	 4.0	 -0.1	 0.1	 -0.1	 1.10306	 100.0	 1	 4.0	 0.0	 0.0	 0.0	 0.0	 0.0	 0.0	 0.0	 0.0	 0.0	 0.0	 0.0	 0.0;
	2777	 7.0	 0.9	 1.0	 0.9	 1.10306	 100.0	 1	 7.0	 1.4	 0.0	 0.0	 0.0	 0.0	 0.0	 0.0	 0.0	 0.0	 0.0	 0.0	 0.0;
	978	 4.394	 -4.161	 4.0	 -7.0	 1.09661	 100.0	 1	 12.0	 2.4	 0.0	 0.0	 0.0	 0.0	 0.0	 0.0	 0.0	 0.0	 0.0	 0.0	 0.0;
	158	 2.7	 0.0	 0.0	 0.0	 1.04669	 100.0	 1	 2.7	 0.0	 0.0	 0.0	 0.0	 0.0	 0.0	 0.0	 0.0	 0.0	 0.0	 0.0	 0.0;
	1217	 13.0	 0.025	 5.0	 -5.0	 1.07184	 100.0	 1	 13.0	 2.6	 0.0	 0.0	 0.0	 0.0	 0.0	 0.0	 0.0	 0.0	 0.0	 0.0	 0.0;
	367	 50.0	 27.0	 27.0	 -9.0	 1.08314	 100.0	 1	 50.0	 10.0	 0.0	 0.0	 0.0	 0.0	 0.0	 0.0	 0.0	 0.0	 0.0	 0.0	 0.0;
	1127	 16.0	 0.0	 0.0	 0.0	 1.04877	 100.0	 1	 16.0	 3.2	 0.0	 0.0	 0.0	 0.0	 0.0	 0.0	 0.0	 0.0	 0.0	 0.0	 0.0;
	460	 0.0	 0.0	 40.0	 -40.0	 1.07647	 100.0	 0	 62.0	 12.4	 0.0	 0.0	 0.0	 0.0	 0.0	 0.0	 0.0	 0.0	 0.0	 0.0	 0.0;
	968	 13.02	 -10.0	 10.0	 -10.0	 1.04501	 100.0	 1	 18.0	 3.6	 0.0	 0.0	 0.0	 0.0	 0.0	 0.0	 0.0	 0.0	 0.0	 0.0	 0.0;
	1827	 22.0	 -11.404	 7.0	 -12.0	 1.08444	 100.0	 1	 22.0	 4.4	 0.0	 0.0	 0.0	 0.0	 0.0	 0.0	 0.0	 0.0	 0.0	 0.0	 0.0;
	1466	 40.0	 4.105	 5.0	 -15.0	 1.07865	 100.0	 1	 40.0	 1.0	 0.0	 0.0	 0.0	 0.0	 0.0	 0.0	 0.0	 0.0	 0.0	 0.0	 0.0;
	2863	 38.852	 0.844	 6.0	 -6.0	 1.06149	 100.0	 1	 40.0	 1.0	 0.0	 0.0	 0.0	 0.0	 0.0	 0.0	 0.0	 0.0	 0.0	 0.0	 0.0;
	1466	 40.0	 4.105	 5.0	 -15.0	 1.07865	 100.0	 1	 40.0	 1.0	 0.0	 0.0	 0.0	 0.0	 0.0	 0.0	 0.0	 0.0	 0.0	 0.0	 0.0;
	2863	 38.852	 0.844	 6.0	 -6.0	 1.06149	 100.0	 1	 40.0	 1.0	 0.0	 0.0	 0.0	 0.0	 0.0	 0.0	 0.0	 0.0	 0.0	 0.0	 0.0;
	1072	 0.0	 0.0	 1.0	 0.9	 1.10083	 100.0	 0	 12.0	 2.4	 0.0	 0.0	 0.0	 0.0	 0.0	 0.0	 0.0	 0.0	 0.0	 0.0	 0.0;
	1072	 0.0	 0.0	 1.0	 0.9	 1.10083	 100.0	 0	 14.0	 2.8	 0.0	 0.0	 0.0	 0.0	 0.0	 0.0	 0.0	 0.0	 0.0	 0.0	 0.0;
	1072	 0.0	 0.0	 1.0	 0.9	 1.10083	 100.0	 0	 12.0	 2.4	 0.0	 0.0	 0.0	 0.0	 0.0	 0.0	 0.0	 0.0	 0.0	 0.0	 0.0;
	642	 10.33	 -3.0	 3.0	 -3.0	 1.04	 100.0	 1	 10.33	 2.07	 0.0	 0.0	 0.0	 0.0	 0.0	 0.0	 0.0	 0.0	 0.0	 0.0	 0.0;
	642	 10.33	 -3.0	 3.0	 -3.0	 1.04	 100.0	 1	 10.33	 2.07	 0.0	 0.0	 0.0	 0.0	 0.0	 0.0	 0.0	 0.0	 0.0	 0.0	 0.0;
	542	 50.0	 14.176	 22.0	 -10.0	 1.04758	 100.0	 1	 50.0	 5.0	 0.0	 0.0	 0.0	 0.0	 0.0	 0.0	 0.0	 0.0	 0.0	 0.0	 0.0;
	773	 12.0	 0.0	 0.0	 0.0	 1.0252	 100.0	 1	 12.0	 2.4	 0.0	 0.0	 0.0	 0.0	 0.0	 0.0	 0.0	 0.0	 0.0	 0.0	 0.0;
	399	 13.8	 0.0	 0.0	 0.0	 1.0429	 100.0	 1	 13.8	 2.76	 0.0	 0.0	 0.0	 0.0	 0.0	 0.0	 0.0	 0.0	 0.0	 0.0	 0.0;
	399	 1.2	 0.0	 0.0	 0.0	 1.0429	 100.0	 1	 1.2	 0.0	 0.0	 0.0	 0.0	 0.0	 0.0	 0.0	 0.0	 0.0	 0.0	 0.0	 0.0;
	21	 24.0	 0.0	 0.0	 0.0	 1.08719	 100.0	 1	 24.0	 4.8	 0.0	 0.0	 0.0	 0.0	 0.0	 0.0	 0.0	 0.0	 0.0	 0.0	 0.0;
	21	 27.6	 0.0	 0.0	 0.0	 1.08719	 100.0	 1	 27.6	 5.52	 0.0	 0.0	 0.0	 0.0	 0.0	 0.0	 0.0	 0.0	 0.0	 0.0	 0.0;
	899	 13.871	 0.0	 0.0	 0.0	 1.06491	 100.0	 1	 18.0	 3.6	 0.0	 0.0	 0.0	 0.0	 0.0	 0.0	 0.0	 0.0	 0.0	 0.0	 0.0;
	899	 16.569	 0.0	 0.0	 0.0	 1.06491	 100.0	 1	 21.0	 4.2	 0.0	 0.0	 0.0	 0.0	 0.0	 0.0	 0.0	 0.0	 0.0	 0.0	 0.0;
	2618	 6.0	 0.0	 0.0	 0.0	 1.05488	 100.0	 1	 6.0	 1.2	 0.0	 0.0	 0.0	 0.0	 0.0	 0.0	 0.0	 0.0	 0.0	 0.0	 0.0;
	2618	 37.5	 7.116	 10.0	 -6.0	 1.05488	 100.0	 1	 37.5	 7.5	 0.0	 0.0	 0.0	 0.0	 0.0	 0.0	 0.0	 0.0	 0.0	 0.0	 0.0;
	285	 6.0	 0.0	 0.0	 0.0	 1.06072	 100.0	 1	 6.0	 1.2	 0.0	 0.0	 0.0	 0.0	 0.0	 0.0	 0.0	 0.0	 0.0	 0.0	 0.0;
	285	 37.5	 8.711	 10.0	 -6.0	 1.06072	 100.0	 1	 37.5	 7.5	 0.0	 0.0	 0.0	 0.0	 0.0	 0.0	 0.0	 0.0	 0.0	 0.0	 0.0;
	135	 13.0	 0.365	 5.0	 -6.0	 1.03392	 100.0	 1	 13.0	 2.6	 0.0	 0.0	 0.0	 0.0	 0.0	 0.0	 0.0	 0.0	 0.0	 0.0	 0.0;
	53	 8.071	 -0.8	 0.8	 -0.8	 1.03094	 100.0	 1	 18.0	 3.6	 0.0	 0.0	 0.0	 0.0	 0.0	 0.0	 0.0	 0.0	 0.0	 0.0	 0.0;
	53	 8.071	 -0.8	 0.8	 -0.8	 1.03094	 100.0	 1	 18.0	 3.6	 0.0	 0.0	 0.0	 0.0	 0.0	 0.0	 0.0	 0.0	 0.0	 0.0	 0.0;
	596	 4.0	 0.0	 0.0	 0.0	 1.0773	 100.0	 1	 4.0	 0.0	 0.0	 0.0	 0.0	 0.0	 0.0	 0.0	 0.0	 0.0	 0.0	 0.0	 0.0;
	958	 4.6	 0.0	 0.0	 0.0	 1.05435	 100.0	 1	 4.6	 0.0	 0.0	 0.0	 0.0	 0.0	 0.0	 0.0	 0.0	 0.0	 0.0	 0.0	 0.0;
	1679	 21.0	 -1.729	 6.0	 -4.0	 1.04916	 100.0	 1	 21.0	 4.2	 0.0	 0.0	 0.0	 0.0	 0.0	 0.0	 0.0	 0.0	 0.0	 0.0	 0.0;
	1679	 21.0	 -2.142	 6.7	 -4.5	 1.04916	 100.0	 1	 21.0	 4.2	 0.0	 0.0	 0.0	 0.0	 0.0	 0.0	 0.0	 0.0	 0.0	 0.0	 0.0;
	1157	 7.2	 0.0	 0.0	 0.0	 1.02518	 100.0	 1	 7.2	 1.44	 0.0	 0.0	 0.0	 0.0	 0.0	 0.0	 0.0	 0.0	 0.0	 0.0	 0.0;
	513	 0.0	 0.0	 5.0	 1.0	 1.01202	 100.0	 0	 11.0	 2.2	 0.0	 0.0	 0.0	 0.0	 0.0	 0.0	 0.0	 0.0	 0.0	 0.0	 0.0;
	513	 0.0	 0.0	 5.0	 1.0	 1.01202	 100.0	 0	 11.0	 2.2	 0.0	 0.0	 0.0	 0.0	 0.0	 0.0	 0.0	 0.0	 0.0	 0.0	 0.0;
	371	 1.615	 2.209	 5.0	 -5.0	 1.05072	 100.0	 1	 8.0	 1.6	 0.0	 0.0	 0.0	 0.0	 0.0	 0.0	 0.0	 0.0	 0.0	 0.0	 0.0;
	371	 1.615	 2.209	 5.0	 -5.0	 1.05072	 100.0	 1	 8.0	 1.6	 0.0	 0.0	 0.0	 0.0	 0.0	 0.0	 0.0	 0.0	 0.0	 0.0	 0.0;
	976	 32.536	 11.439	 12.0	 -15.0	 1.06177	 100.0	 1	 35.0	 7.0	 0.0	 0.0	 0.0	 0.0	 0.0	 0.0	 0.0	 0.0	 0.0	 0.0	 0.0;
	976	 32.536	 11.439	 12.0	 -15.0	 1.06177	 100.0	 1	 35.0	 7.0	 0.0	 0.0	 0.0	 0.0	 0.0	 0.0	 0.0	 0.0	 0.0	 0.0	 0.0;
	2754	 11.5	 0.0	 0.0	 0.0	 1.05582	 100.0	 1	 11.5	 2.3	 0.0	 0.0	 0.0	 0.0	 0.0	 0.0	 0.0	 0.0	 0.0	 0.0	 0.0;
	749	 0.0	 0.0	 5.0	 -5.0	 0.93995	 100.0	 0	 8.5	 1.7	 0.0	 0.0	 0.0	 0.0	 0.0	 0.0	 0.0	 0.0	 0.0	 0.0	 0.0;
	1188	 20.0	 1.9	 2.0	 1.9	 1.09998	 100.0	 1	 20.0	 4.0	 0.0	 0.0	 0.0	 0.0	 0.0	 0.0	 0.0	 0.0	 0.0	 0.0	 0.0;
	1254	 8.841	 -6.263	 7.0	 -7.0	 1.0579	 100.0	 1	 24.0	 4.8	 0.0	 0.0	 0.0	 0.0	 0.0	 0.0	 0.0	 0.0	 0.0	 0.0	 0.0;
	252	 3.366	 0.663	 8.0	 -5.0	 0.93995	 100.0	 1	 11.0	 2.2	 0.0	 0.0	 0.0	 0.0	 0.0	 0.0	 0.0	 0.0	 0.0	 0.0	 0.0;
	252	 2.922	 -0.102	 6.0	 -5.0	 0.93995	 100.0	 1	 9.0	 1.8	 0.0	 0.0	 0.0	 0.0	 0.0	 0.0	 0.0	 0.0	 0.0	 0.0	 0.0;
	252	 3.366	 0.663	 8.0	 -5.0	 0.93995	 100.0	 1	 11.0	 2.2	 0.0	 0.0	 0.0	 0.0	 0.0	 0.0	 0.0	 0.0	 0.0	 0.0	 0.0;
	252	 2.922	 -0.102	 6.0	 -5.0	 0.93995	 100.0	 1	 9.0	 1.8	 0.0	 0.0	 0.0	 0.0	 0.0	 0.0	 0.0	 0.0	 0.0	 0.0	 0.0;
	504	 5.484	 -4.387	 6.5	 -6.5	 0.94092	 100.0	 1	 12.4	 2.48	 0.0	 0.0	 0.0	 0.0	 0.0	 0.0	 0.0	 0.0	 0.0	 0.0	 0.0;
	115	 25.3	 0.0	 0.0	 0.0	 1.07958	 100.0	 1	 25.3	 5.06	 0.0	 0.0	 0.0	 0.0	 0.0	 0.0	 0.0	 0.0	 0.0	 0.0	 0.0;
	967	 2.297	 0.0	 0.0	 0.0	 1.04524	 100.0	 1	 2.3	 0.0	 0.0	 0.0	 0.0	 0.0	 0.0	 0.0	 0.0	 0.0	 0.0	 0.0	 0.0;
	1811	 9.0	 -5.5	 5.5	 -5.5	 1.03434	 100.0	 1	 9.0	 1.8	 0.0	 0.0	 0.0	 0.0	 0.0	 0.0	 0.0	 0.0	 0.0	 0.0	 0.0;
	2634	 14.0	 1.095	 7.0	 -7.0	 1.0379	 100.0	 1	 14.0	 2.8	 0.0	 0.0	 0.0	 0.0	 0.0	 0.0	 0.0	 0.0	 0.0	 0.0	 0.0;
	326	 14.0	 3.616	 7.0	 -7.0	 1.03689	 100.0	 1	 14.0	 2.8	 0.0	 0.0	 0.0	 0.0	 0.0	 0.0	 0.0	 0.0	 0.0	 0.0	 0.0;
	1829	 12.8	 -6.397	 7.7	 -7.7	 1.01968	 100.0	 1	 12.8	 2.56	 0.0	 0.0	 0.0	 0.0	 0.0	 0.0	 0.0	 0.0	 0.0	 0.0	 0.0;
	1314	 31.617	 -2.7	 19.0	 -19.0	 1.10285	 100.0	 1	 39.0	 7.8	 0.0	 0.0	 0.0	 0.0	 0.0	 0.0	 0.0	 0.0	 0.0	 0.0	 0.0;
	71	 25.732	 -4.0	 10.0	 -4.0	 1.1008	 100.0	 1	 30.0	 6.0	 0.0	 0.0	 0.0	 0.0	 0.0	 0.0	 0.0	 0.0	 0.0	 0.0	 0.0;
	93	 0.0	 0.0	 2.0	 1.9	 1.10037	 100.0	 0	 6.0	 1.2	 0.0	 0.0	 0.0	 0.0	 0.0	 0.0	 0.0	 0.0	 0.0	 0.0	 0.0;
	129	 11.0	 4.0	 4.0	 -4.0	 1.04069	 100.0	 1	 11.0	 2.2	 0.0	 0.0	 0.0	 0.0	 0.0	 0.0	 0.0	 0.0	 0.0	 0.0	 0.0;
	1594	 12.0	 1.698	 5.0	 -5.0	 1.06995	 100.0	 1	 12.0	 2.4	 0.0	 0.0	 0.0	 0.0	 0.0	 0.0	 0.0	 0.0	 0.0	 0.0	 0.0;
	1594	 12.0	 1.698	 5.0	 -5.0	 1.06995	 100.0	 1	 12.0	 2.4	 0.0	 0.0	 0.0	 0.0	 0.0	 0.0	 0.0	 0.0	 0.0	 0.0	 0.0;
	1354	 5.0	 2.0	 2.0	 -2.0	 1.04454	 100.0	 1	 5.0	 0.0	 0.0	 0.0	 0.0	 0.0	 0.0	 0.0	 0.0	 0.0	 0.0	 0.0	 0.0;
	1133	 17.25	 0.0	 0.0	 0.0	 1.04641	 100.0	 1	 17.25	 3.45	 0.0	 0.0	 0.0	 0.0	 0.0	 0.0	 0.0	 0.0	 0.0	 0.0	 0.0;
	1405	 37.8	 12.0	 12.0	 -8.0	 1.11933	 100.0	 1	 37.8	 7.56	 0.0	 0.0	 0.0	 0.0	 0.0	 0.0	 0.0	 0.0	 0.0	 0.0	 0.0;
	2850	 37.8	 12.0	 12.0	 -8.0	 1.11933	 100.0	 1	 37.8	 7.56	 0.0	 0.0	 0.0	 0.0	 0.0	 0.0	 0.0	 0.0	 0.0	 0.0	 0.0;
	2849	 37.8	 12.0	 12.0	 -8.0	 1.11933	 100.0	 1	 37.8	 7.56	 0.0	 0.0	 0.0	 0.0	 0.0	 0.0	 0.0	 0.0	 0.0	 0.0	 0.0;
	1122	 6.9	 0.0	 0.0	 0.0	 1.04668	 100.0	 1	 6.9	 1.38	 0.0	 0.0	 0.0	 0.0	 0.0	 0.0	 0.0	 0.0	 0.0	 0.0	 0.0;
	1708	 45.0	 10.028	 27.0	 -9.0	 1.05585	 100.0	 1	 45.0	 44.0	 0.0	 0.0	 0.0	 0.0	 0.0	 0.0	 0.0	 0.0	 0.0	 0.0	 0.0;
	1708	 45.0	 10.028	 27.0	 -9.0	 1.05585	 100.0	 1	 45.0	 44.0	 0.0	 0.0	 0.0	 0.0	 0.0	 0.0	 0.0	 0.0	 0.0	 0.0	 0.0;
	1658	 29.9	 0.0	 0.0	 0.0	 1.06546	 100.0	 1	 29.9	 5.98	 0.0	 0.0	 0.0	 0.0	 0.0	 0.0	 0.0	 0.0	 0.0	 0.0	 0.0;
	2884	 13.7	 0.0	 0.0	 0.0	 1.07597	 100.0	 1	 13.7	 2.74	 0.0	 0.0	 0.0	 0.0	 0.0	 0.0	 0.0	 0.0	 0.0	 0.0	 0.0;
	1154	 20.8	 0.0	 0.0	 0.0	 1.04732	 100.0	 1	 20.8	 4.16	 0.0	 0.0	 0.0	 0.0	 0.0	 0.0	 0.0	 0.0	 0.0	 0.0	 0.0;
	231	 2.803	 -0.358	 8.3	 -8.3	 1.07645	 100.0	 1	 8.3	 1.66	 0.0	 0.0	 0.0	 0.0	 0.0	 0.0	 0.0	 0.0	 0.0	 0.0	 0.0;
	2887	 23.7	 7.0	 7.0	 -3.0	 1.07574	 100.0	 1	 23.7	 4.74	 0.0	 0.0	 0.0	 0.0	 0.0	 0.0	 0.0	 0.0	 0.0	 0.0	 0.0;
	2888	 23.7	 7.0	 7.0	 -3.0	 1.07574	 100.0	 1	 23.7	 4.74	 0.0	 0.0	 0.0	 0.0	 0.0	 0.0	 0.0	 0.0	 0.0	 0.0	 0.0;
	1666	 23.7	 7.0	 7.0	 -3.0	 1.07574	 100.0	 1	 23.7	 4.74	 0.0	 0.0	 0.0	 0.0	 0.0	 0.0	 0.0	 0.0	 0.0	 0.0	 0.0;
	499	 17.0	 0.9	 1.0	 0.9	 1.11755	 100.0	 1	 17.0	 3.4	 0.0	 0.0	 0.0	 0.0	 0.0	 0.0	 0.0	 0.0	 0.0	 0.0	 0.0;
	499	 7.0	 0.9	 1.0	 0.9	 1.11755	 100.0	 1	 7.0	 1.4	 0.0	 0.0	 0.0	 0.0	 0.0	 0.0	 0.0	 0.0	 0.0	 0.0	 0.0;
	499	 17.0	 0.9	 1.0	 0.9	 1.11755	 100.0	 1	 17.0	 3.4	 0.0	 0.0	 0.0	 0.0	 0.0	 0.0	 0.0	 0.0	 0.0	 0.0	 0.0;
	2709	 24.0	 4.0	 4.0	 -4.0	 1.06846	 100.0	 1	 24.0	 4.8	 0.0	 0.0	 0.0	 0.0	 0.0	 0.0	 0.0	 0.0	 0.0	 0.0	 0.0;
	709	 24.0	 4.0	 4.0	 -4.0	 1.06846	 100.0	 1	 24.0	 4.8	 0.0	 0.0	 0.0	 0.0	 0.0	 0.0	 0.0	 0.0	 0.0	 0.0	 0.0;
	2710	 24.0	 4.0	 4.0	 -4.0	 1.06846	 100.0	 1	 24.0	 4.8	 0.0	 0.0	 0.0	 0.0	 0.0	 0.0	 0.0	 0.0	 0.0	 0.0	 0.0;
	2708	 24.0	 4.0	 4.0	 -4.0	 1.06846	 100.0	 1	 24.0	 4.8	 0.0	 0.0	 0.0	 0.0	 0.0	 0.0	 0.0	 0.0	 0.0	 0.0	 0.0;
	1280	 18.0	 0.0	 0.0	 0.0	 1.04859	 100.0	 1	 18.0	 3.6	 0.0	 0.0	 0.0	 0.0	 0.0	 0.0	 0.0	 0.0	 0.0	 0.0	 0.0;
	1493	 0.0	 0.0	 11.0	 -11.0	 0.93949	 100.0	 0	 18.0	 3.6	 0.0	 0.0	 0.0	 0.0	 0.0	 0.0	 0.0	 0.0	 0.0	 0.0	 0.0;
	745	 14.609	 2.019	 8.0	 -18.0	 1.0619	 100.0	 1	 29.0	 5.8	 0.0	 0.0	 0.0	 0.0	 0.0	 0.0	 0.0	 0.0	 0.0	 0.0	 0.0;
	2727	 17.022	 0.683	 5.0	 -18.0	 1.06349	 100.0	 1	 29.0	 5.8	 0.0	 0.0	 0.0	 0.0	 0.0	 0.0	 0.0	 0.0	 0.0	 0.0	 0.0;
	1445	 55.0	 0.0	 0.0	 0.0	 1.07832	 100.0	 1	 55.0	 11.0	 0.0	 0.0	 0.0	 0.0	 0.0	 0.0	 0.0	 0.0	 0.0	 0.0	 0.0;
	316	 0.0	 0.95	 1.0	 0.9	 1.04116	 100.0	 1	 5.0	 0.0	 0.0	 0.0	 0.0	 0.0	 0.0	 0.0	 0.0	 0.0	 0.0	 0.0	 0.0;
	316	 4.967	 -0.295	 3.14	 -3.43	 1.04116	 100.0	 1	 9.8	 1.96	 0.0	 0.0	 0.0	 0.0	 0.0	 0.0	 0.0	 0.0	 0.0	 0.0	 0.0;
	564	 2.0	 0.0	 0.0	 0.0	 1.04311	 100.0	 1	 10.0	 2.0	 0.0	 0.0	 0.0	 0.0	 0.0	 0.0	 0.0	 0.0	 0.0	 0.0	 0.0;
	1047	 12.0	 0.0	 0.0	 0.0	 1.04415	 100.0	 1	 12.0	 2.4	 0.0	 0.0	 0.0	 0.0	 0.0	 0.0	 0.0	 0.0	 0.0	 0.0	 0.0;
	1047	 2.0	 0.0	 0.0	 0.0	 1.04415	 100.0	 1	 2.0	 0.0	 0.0	 0.0	 0.0	 0.0	 0.0	 0.0	 0.0	 0.0	 0.0	 0.0	 0.0;
	1335	 2.0	 -1.0	 3.0	 -1.0	 1.03469	 100.0	 1	 2.0	 0.0	 0.0	 0.0	 0.0	 0.0	 0.0	 0.0	 0.0	 0.0	 0.0	 0.0	 0.0;
	2624	 24.269	 1.501	 15.0	 -17.0	 1.08119	 100.0	 1	 31.0	 6.2	 0.0	 0.0	 0.0	 0.0	 0.0	 0.0	 0.0	 0.0	 0.0	 0.0	 0.0;
	298	 28.411	 2.5	 15.0	 -17.0	 1.08231	 100.0	 1	 31.0	 6.2	 0.0	 0.0	 0.0	 0.0	 0.0	 0.0	 0.0	 0.0	 0.0	 0.0	 0.0;
	298	 28.411	 2.5	 15.0	 -17.0	 1.08231	 100.0	 1	 31.0	 6.2	 0.0	 0.0	 0.0	 0.0	 0.0	 0.0	 0.0	 0.0	 0.0	 0.0	 0.0;
	2625	 28.411	 2.5	 15.0	 -17.0	 1.08231	 100.0	 1	 31.0	 6.2	 0.0	 0.0	 0.0	 0.0	 0.0	 0.0	 0.0	 0.0	 0.0	 0.0	 0.0;
	2625	 28.411	 2.5	 15.0	 -17.0	 1.08231	 100.0	 1	 31.0	 6.2	 0.0	 0.0	 0.0	 0.0	 0.0	 0.0	 0.0	 0.0	 0.0	 0.0	 0.0;
	2624	 24.269	 1.501	 15.0	 -17.0	 1.08119	 100.0	 1	 31.0	 6.2	 0.0	 0.0	 0.0	 0.0	 0.0	 0.0	 0.0	 0.0	 0.0	 0.0	 0.0;
	2721	 24.0	 0.0	 0.0	 -0.01	 1.08093	 100.0	 1	 24.0	 4.8	 0.0	 0.0	 0.0	 0.0	 0.0	 0.0	 0.0	 0.0	 0.0	 0.0	 0.0;
	2718	 24.0	 8.0	 8.0	 -7.0	 1.08946	 100.0	 1	 24.0	 4.8	 0.0	 0.0	 0.0	 0.0	 0.0	 0.0	 0.0	 0.0	 0.0	 0.0	 0.0;
	741	 24.0	 8.0	 8.0	 -7.0	 1.08946	 100.0	 1	 24.0	 4.8	 0.0	 0.0	 0.0	 0.0	 0.0	 0.0	 0.0	 0.0	 0.0	 0.0	 0.0;
	2719	 24.0	 8.0	 8.0	 -7.0	 1.08946	 100.0	 1	 24.0	 4.8	 0.0	 0.0	 0.0	 0.0	 0.0	 0.0	 0.0	 0.0	 0.0	 0.0	 0.0;
	2720	 24.0	 8.0	 8.0	 -7.0	 1.08946	 100.0	 1	 24.0	 4.8	 0.0	 0.0	 0.0	 0.0	 0.0	 0.0	 0.0	 0.0	 0.0	 0.0	 0.0;
	283	 23.5	 -2.012	 8.0	 -8.0	 1.08125	 100.0	 1	 23.5	 4.7	 0.0	 0.0	 0.0	 0.0	 0.0	 0.0	 0.0	 0.0	 0.0	 0.0	 0.0;
	1506	 27.0	 6.0	 6.0	 -11.0	 1.05727	 100.0	 1	 27.0	 5.4	 0.0	 0.0	 0.0	 0.0	 0.0	 0.0	 0.0	 0.0	 0.0	 0.0	 0.0;
	1506	 27.0	 6.0	 6.0	 -11.0	 1.05727	 100.0	 1	 27.0	 5.4	 0.0	 0.0	 0.0	 0.0	 0.0	 0.0	 0.0	 0.0	 0.0	 0.0	 0.0;
	1847	 32.0	 0.173	 12.0	 -8.0	 1.03961	 100.0	 1	 32.0	 6.4	 0.0	 0.0	 0.0	 0.0	 0.0	 0.0	 0.0	 0.0	 0.0	 0.0	 0.0;
	1398	 20.02	 0.0	 0.0	 0.0	 1.05717	 100.0	 1	 20.02	 4.0	 0.0	 0.0	 0.0	 0.0	 0.0	 0.0	 0.0	 0.0	 0.0	 0.0	 0.0;
	1398	 20.35	 0.0	 0.0	 0.0	 1.05717	 100.0	 1	 20.35	 4.07	 0.0	 0.0	 0.0	 0.0	 0.0	 0.0	 0.0	 0.0	 0.0	 0.0	 0.0;
	225	 45.0	 -14.298	 45.0	 -45.0	 1.03006	 100.0	 1	 45.0	 9.0	 0.0	 0.0	 0.0	 0.0	 0.0	 0.0	 0.0	 0.0	 0.0	 0.0	 0.0;
	225	 45.0	 -14.298	 45.0	 -45.0	 1.03006	 100.0	 1	 45.0	 9.0	 0.0	 0.0	 0.0	 0.0	 0.0	 0.0	 0.0	 0.0	 0.0	 0.0	 0.0;
	1607	 1.74	 0.0	 0.0	 0.0	 1.07369	 100.0	 1	 1.74	 0.0	 0.0	 0.0	 0.0	 0.0	 0.0	 0.0	 0.0	 0.0	 0.0	 0.0	 0.0;
	314	 4.0	 -2.004	 10.0	 -10.0	 0.94137	 100.0	 1	 20.0	 4.0	 0.0	 0.0	 0.0	 0.0	 0.0	 0.0	 0.0	 0.0	 0.0	 0.0	 0.0;
	2680	 91.375	 25.571	 100.0	 -60.0	 1.11064	 100.0	 1	 239.0	 44.0	 0.0	 0.0	 0.0	 0.0	 0.0	 0.0	 0.0	 0.0	 0.0	 0.0	 0.0;
	582	 82.0	 14.159	 70.0	 -45.0	 0.97149	 100.0	 1	 169.0	 82.0	 0.0	 0.0	 0.0	 0.0	 0.0	 0.0	 0.0	 0.0	 0.0	 0.0	 0.0;
	2978	 82.0	 14.159	 70.0	 -45.0	 0.97149	 100.0	 1	 169.0	 82.0	 0.0	 0.0	 0.0	 0.0	 0.0	 0.0	 0.0	 0.0	 0.0	 0.0	 0.0;
	2977	 91.375	 25.571	 100.0	 -60.0	 1.11064	 100.0	 1	 239.0	 44.0	 0.0	 0.0	 0.0	 0.0	 0.0	 0.0	 0.0	 0.0	 0.0	 0.0	 0.0;
	240	 239.0	 -74.997	 80.0	 -75.0	 1.08545	 100.0	 1	 239.0	 47.8	 0.0	 0.0	 0.0	 0.0	 0.0	 0.0	 0.0	 0.0	 0.0	 0.0	 0.0;
	1655	 12.0	 0.0	 0.0	 0.0	 1.04993	 100.0	 1	 12.0	 2.4	 0.0	 0.0	 0.0	 0.0	 0.0	 0.0	 0.0	 0.0	 0.0	 0.0	 0.0;
	1655	 4.0	 0.0	 0.0	 0.0	 1.04993	 100.0	 1	 4.0	 0.0	 0.0	 0.0	 0.0	 0.0	 0.0	 0.0	 0.0	 0.0	 0.0	 0.0	 0.0;
	1150	 54.0	 0.0	 0.0	 0.0	 1.08255	 100.0	 1	 54.0	 10.8	 0.0	 0.0	 0.0	 0.0	 0.0	 0.0	 0.0	 0.0	 0.0	 0.0	 0.0;
	1447	 7.0	 1.999	 2.0	 -3.0	 1.03929	 100.0	 1	 7.0	 1.4	 0.0	 0.0	 0.0	 0.0	 0.0	 0.0	 0.0	 0.0	 0.0	 0.0	 0.0;
	906	 0.0	 0.0	 8.0	 -8.0	 1.07651	 100.0	 0	 21.0	 4.2	 0.0	 0.0	 0.0	 0.0	 0.0	 0.0	 0.0	 0.0	 0.0	 0.0	 0.0;
	1474	 0.0	 -0.0	 1.0	 -1.0	 1.02389	 100.0	 0	 2.0	 0.0	 0.0	 0.0	 0.0	 0.0	 0.0	 0.0	 0.0	 0.0	 0.0	 0.0	 0.0;
	1474	 8.0	 3.0	 3.0	 -3.0	 1.02389	 100.0	 1	 8.0	 1.6	 0.0	 0.0	 0.0	 0.0	 0.0	 0.0	 0.0	 0.0	 0.0	 0.0	 0.0;
	1474	 8.0	 3.0	 3.0	 -3.0	 1.02389	 100.0	 1	 8.0	 1.6	 0.0	 0.0	 0.0	 0.0	 0.0	 0.0	 0.0	 0.0	 0.0	 0.0	 0.0;
	963	 8.9	 -2.0	 1.0	 -2.0	 1.01519	 100.0	 1	 8.9	 1.78	 0.0	 0.0	 0.0	 0.0	 0.0	 0.0	 0.0	 0.0	 0.0	 0.0	 0.0;
	962	 22.0	 0.0	 0.0	 0.0	 1.04468	 100.0	 1	 22.0	 4.4	 0.0	 0.0	 0.0	 0.0	 0.0	 0.0	 0.0	 0.0	 0.0	 0.0	 0.0;
	923	 11.999	 -3.297	 5.0	 -5.0	 1.02949	 100.0	 1	 12.0	 2.4	 0.0	 0.0	 0.0	 0.0	 0.0	 0.0	 0.0	 0.0	 0.0	 0.0	 0.0;
	1153	 12.605	 -9.72	 17.3	 -17.3	 1.04844	 100.0	 1	 16.0	 3.2	 0.0	 0.0	 0.0	 0.0	 0.0	 0.0	 0.0	 0.0	 0.0	 0.0	 0.0;
	1153	 13.334	 -3.99	 10.0	 -10.0	 1.04844	 100.0	 1	 16.8	 3.36	 0.0	 0.0	 0.0	 0.0	 0.0	 0.0	 0.0	 0.0	 0.0	 0.0	 0.0;
	274	 6.7	 -1.245	 3.7	 -3.7	 1.05963	 100.0	 1	 6.7	 1.34	 0.0	 0.0	 0.0	 0.0	 0.0	 0.0	 0.0	 0.0	 0.0	 0.0	 0.0;
	274	 5.6	 -0.849	 3.0	 -3.0	 1.05963	 100.0	 1	 5.6	 1.12	 0.0	 0.0	 0.0	 0.0	 0.0	 0.0	 0.0	 0.0	 0.0	 0.0	 0.0;
	1776	 10.0	 2.352	 5.0	 -5.0	 1.03928	 100.0	 1	 10.0	 2.0	 0.0	 0.0	 0.0	 0.0	 0.0	 0.0	 0.0	 0.0	 0.0	 0.0	 0.0;
	1776	 10.0	 2.352	 5.0	 -5.0	 1.03928	 100.0	 1	 10.0	 2.0	 0.0	 0.0	 0.0	 0.0	 0.0	 0.0	 0.0	 0.0	 0.0	 0.0	 0.0;
	2914	 10.0	 2.352	 5.0	 -5.0	 1.03928	 100.0	 1	 10.0	 2.0	 0.0	 0.0	 0.0	 0.0	 0.0	 0.0	 0.0	 0.0	 0.0	 0.0	 0.0;
	2914	 10.0	 2.352	 5.0	 -5.0	 1.03928	 100.0	 1	 10.0	 2.0	 0.0	 0.0	 0.0	 0.0	 0.0	 0.0	 0.0	 0.0	 0.0	 0.0	 0.0;
	184	 0.0	 0.0	 8.0	 -17.0	 1.05454	 100.0	 0	 23.4	 4.68	 0.0	 0.0	 0.0	 0.0	 0.0	 0.0	 0.0	 0.0	 0.0	 0.0	 0.0;
	1657	 26.0	 3.434	 16.0	 -17.0	 1.05956	 100.0	 1	 26.0	 5.2	 0.0	 0.0	 0.0	 0.0	 0.0	 0.0	 0.0	 0.0	 0.0	 0.0	 0.0;
	1657	 26.0	 3.434	 16.0	 -17.0	 1.05956	 100.0	 1	 26.0	 5.2	 0.0	 0.0	 0.0	 0.0	 0.0	 0.0	 0.0	 0.0	 0.0	 0.0	 0.0;
	1761	 0.061	 -0.1	 0.1	 -0.1	 1.10083	 100.0	 1	 2.5	 0.0	 0.0	 0.0	 0.0	 0.0	 0.0	 0.0	 0.0	 0.0	 0.0	 0.0	 0.0;
	1761	 0.0	 0.0	 1.0	 0.9	 1.10083	 100.0	 0	 11.0	 2.2	 0.0	 0.0	 0.0	 0.0	 0.0	 0.0	 0.0	 0.0	 0.0	 0.0	 0.0;
	1868	 30.0	 9.581	 18.0	 -18.0	 1.06349	 100.0	 1	 30.0	 6.0	 0.0	 0.0	 0.0	 0.0	 0.0	 0.0	 0.0	 0.0	 0.0	 0.0	 0.0;
	1868	 30.0	 9.581	 18.0	 -18.0	 1.06349	 100.0	 1	 30.0	 6.0	 0.0	 0.0	 0.0	 0.0	 0.0	 0.0	 0.0	 0.0	 0.0	 0.0	 0.0;
	731	 0.0	 0.0	 26.0	 -26.0	 1.05267	 100.0	 0	 43.0	 8.6	 0.0	 0.0	 0.0	 0.0	 0.0	 0.0	 0.0	 0.0	 0.0	 0.0	 0.0;
	2715	 0.0	 0.0	 20.0	 -20.0	 1.05249	 100.0	 0	 38.0	 7.6	 0.0	 0.0	 0.0	 0.0	 0.0	 0.0	 0.0	 0.0	 0.0	 0.0	 0.0;
	1263	 23.1	 1.686	 14.0	 -14.0	 1.06116	 100.0	 1	 23.1	 4.62	 0.0	 0.0	 0.0	 0.0	 0.0	 0.0	 0.0	 0.0	 0.0	 0.0	 0.0;
	1263	 23.1	 1.686	 14.0	 -14.0	 1.06116	 100.0	 1	 23.1	 4.62	 0.0	 0.0	 0.0	 0.0	 0.0	 0.0	 0.0	 0.0	 0.0	 0.0	 0.0;
	161	 18.0	 0.464	 5.0	 -5.0	 1.04908	 100.0	 1	 18.0	 3.6	 0.0	 0.0	 0.0	 0.0	 0.0	 0.0	 0.0	 0.0	 0.0	 0.0	 0.0;
	604	 10.2	 6.0	 6.0	 -6.0	 1.04932	 100.0	 1	 10.2	 2.04	 0.0	 0.0	 0.0	 0.0	 0.0	 0.0	 0.0	 0.0	 0.0	 0.0	 0.0;
	918	 26.0	 0.0	 0.0	 0.0	 1.06424	 100.0	 1	 26.0	 5.2	 0.0	 0.0	 0.0	 0.0	 0.0	 0.0	 0.0	 0.0	 0.0	 0.0	 0.0;
	1760	 8.131	 1.0	 1.0	 -1.0	 1.06941	 100.0	 1	 11.5	 2.3	 0.0	 0.0	 0.0	 0.0	 0.0	 0.0	 0.0	 0.0	 0.0	 0.0	 0.0;
	1760	 8.131	 1.0	 1.0	 -1.0	 1.06941	 100.0	 1	 11.5	 2.3	 0.0	 0.0	 0.0	 0.0	 0.0	 0.0	 0.0	 0.0	 0.0	 0.0	 0.0;
	1414	 12.573	 -1.997	 7.8	 -7.8	 1.05266	 100.0	 1	 13.0	 2.6	 0.0	 0.0	 0.0	 0.0	 0.0	 0.0	 0.0	 0.0	 0.0	 0.0	 0.0;
	1414	 11.575	 -1.717	 7.2	 -7.2	 1.05266	 100.0	 1	 12.0	 2.4	 0.0	 0.0	 0.0	 0.0	 0.0	 0.0	 0.0	 0.0	 0.0	 0.0	 0.0;
	662	 40.0	 18.999	 20.0	 -18.0	 1.14094	 100.0	 1	 40.0	 8.0	 0.0	 0.0	 0.0	 0.0	 0.0	 0.0	 0.0	 0.0	 0.0	 0.0	 0.0;
	2697	 40.0	 18.999	 20.0	 -18.0	 1.14094	 100.0	 1	 40.0	 8.0	 0.0	 0.0	 0.0	 0.0	 0.0	 0.0	 0.0	 0.0	 0.0	 0.0	 0.0;
	2696	 40.0	 18.999	 20.0	 -18.0	 1.14094	 100.0	 1	 40.0	 8.0	 0.0	 0.0	 0.0	 0.0	 0.0	 0.0	 0.0	 0.0	 0.0	 0.0	 0.0;
	1346	 6.626	 -1.062	 7.0	 -7.0	 1.06264	 100.0	 1	 12.0	 2.4	 0.0	 0.0	 0.0	 0.0	 0.0	 0.0	 0.0	 0.0	 0.0	 0.0	 0.0;
	1346	 6.626	 -1.062	 7.0	 -7.0	 1.06264	 100.0	 1	 12.0	 2.4	 0.0	 0.0	 0.0	 0.0	 0.0	 0.0	 0.0	 0.0	 0.0	 0.0	 0.0;
	2622	 4.913	 2.443	 26.0	 -26.0	 1.08594	 100.0	 1	 8.0	 1.6	 0.0	 0.0	 0.0	 0.0	 0.0	 0.0	 0.0	 0.0	 0.0	 0.0	 0.0;
	2622	 9.395	 2.443	 26.0	 -26.0	 1.08594	 100.0	 1	 15.0	 3.0	 0.0	 0.0	 0.0	 0.0	 0.0	 0.0	 0.0	 0.0	 0.0	 0.0	 0.0;
	291	 3.808	 1.287	 26.0	 -26.0	 1.07179	 100.0	 1	 19.0	 3.8	 0.0	 0.0	 0.0	 0.0	 0.0	 0.0	 0.0	 0.0	 0.0	 0.0	 0.0;
	1490	 10.6	 2.709	 6.5	 -6.5	 1.05373	 100.0	 1	 10.6	 2.12	 0.0	 0.0	 0.0	 0.0	 0.0	 0.0	 0.0	 0.0	 0.0	 0.0	 0.0;
	1671	 21.4	 -0.385	 15.0	 -15.0	 1.04902	 100.0	 1	 21.4	 4.28	 0.0	 0.0	 0.0	 0.0	 0.0	 0.0	 0.0	 0.0	 0.0	 0.0	 0.0;
	1615	 12.961	 -0.668	 24.0	 -24.0	 1.06349	 100.0	 1	 39.0	 7.8	 0.0	 0.0	 0.0	 0.0	 0.0	 0.0	 0.0	 0.0	 0.0	 0.0	 0.0;
	1681	 87.0	 0.865	 26.1	 -24.36	 1.07886	 100.0	 1	 87.0	 17.4	 0.0	 0.0	 0.0	 0.0	 0.0	 0.0	 0.0	 0.0	 0.0	 0.0	 0.0;
	418	 75.0	 27.724	 50.0	 -40.0	 1.12729	 100.0	 1	 75.0	 15.0	 0.0	 0.0	 0.0	 0.0	 0.0	 0.0	 0.0	 0.0	 0.0	 0.0	 0.0;
	2658	 75.0	 27.724	 50.0	 -40.0	 1.12729	 100.0	 1	 75.0	 15.0	 0.0	 0.0	 0.0	 0.0	 0.0	 0.0	 0.0	 0.0	 0.0	 0.0	 0.0;
	418	 75.0	 27.724	 50.0	 -40.0	 1.12729	 100.0	 1	 75.0	 15.0	 0.0	 0.0	 0.0	 0.0	 0.0	 0.0	 0.0	 0.0	 0.0	 0.0	 0.0;
	2658	 75.0	 27.724	 50.0	 -40.0	 1.12729	 100.0	 1	 75.0	 15.0	 0.0	 0.0	 0.0	 0.0	 0.0	 0.0	 0.0	 0.0	 0.0	 0.0	 0.0;
	461	 41.4	 -5.954	 12.42	 -11.59	 1.08155	 100.0	 1	 41.4	 8.28	 0.0	 0.0	 0.0	 0.0	 0.0	 0.0	 0.0	 0.0	 0.0	 0.0	 0.0;
	31	 5.786	 0.0	 0.0	 0.0	 1.05495	 100.0	 1	 6.68	 1.34	 0.0	 0.0	 0.0	 0.0	 0.0	 0.0	 0.0	 0.0	 0.0	 0.0	 0.0;
	236	 15.0	 0.0	 7.0	 0.0	 1.04197	 100.0	 1	 15.0	 3.0	 0.0	 0.0	 0.0	 0.0	 0.0	 0.0	 0.0	 0.0	 0.0	 0.0	 0.0;
	236	 15.0	 0.0	 7.0	 0.0	 1.04197	 100.0	 1	 15.0	 3.0	 0.0	 0.0	 0.0	 0.0	 0.0	 0.0	 0.0	 0.0	 0.0	 0.0	 0.0;
	1754	 1.0	 -0.308	 1.0	 -1.0	 1.02918	 100.0	 1	 1.0	 0.0	 0.0	 0.0	 0.0	 0.0	 0.0	 0.0	 0.0	 0.0	 0.0	 0.0	 0.0;
	1754	 1.0	 -0.308	 1.0	 -1.0	 1.02918	 100.0	 1	 1.0	 0.0	 0.0	 0.0	 0.0	 0.0	 0.0	 0.0	 0.0	 0.0	 0.0	 0.0	 0.0;
	1754	 1.0	 -0.308	 1.0	 -1.0	 1.02918	 100.0	 1	 1.0	 0.0	 0.0	 0.0	 0.0	 0.0	 0.0	 0.0	 0.0	 0.0	 0.0	 0.0	 0.0;
	898	 0.73	 0.0	 0.0	 0.0	 1.05323	 100.0	 1	 1.7	 0.0	 0.0	 0.0	 0.0	 0.0	 0.0	 0.0	 0.0	 0.0	 0.0	 0.0	 0.0;
	898	 6.998	 0.0	 0.0	 0.0	 1.05323	 100.0	 1	 22.6	 4.52	 0.0	 0.0	 0.0	 0.0	 0.0	 0.0	 0.0	 0.0	 0.0	 0.0	 0.0;
	120	 15.0	 -8.564	 9.0	 -9.0	 1.03319	 100.0	 1	 15.0	 3.0	 0.0	 0.0	 0.0	 0.0	 0.0	 0.0	 0.0	 0.0	 0.0	 0.0	 0.0;
	549	 50.0	 10.186	 22.0	 -10.0	 1.04861	 100.0	 1	 50.0	 5.0	 0.0	 0.0	 0.0	 0.0	 0.0	 0.0	 0.0	 0.0	 0.0	 0.0	 0.0;
	77	 11.226	 0.0	 0.0	 0.0	 1.07345	 100.0	 1	 23.5	 4.7	 0.0	 0.0	 0.0	 0.0	 0.0	 0.0	 0.0	 0.0	 0.0	 0.0	 0.0;
	124	 0.0	 0.0	 0.0	 0.0	 1.07339	 100.0	 1	 0.0	 -7.0	 0.0	 0.0	 0.0	 0.0	 0.0	 0.0	 0.0	 0.0	 0.0	 0.0	 0.0;
	124	 0.0	 0.0	 0.0	 0.0	 1.07339	 100.0	 1	 0.0	 -7.0	 0.0	 0.0	 0.0	 0.0	 0.0	 0.0	 0.0	 0.0	 0.0	 0.0	 0.0;
	552	 21.0	 0.0	 0.0	 0.0	 1.0634	 100.0	 1	 21.0	 4.2	 0.0	 0.0	 0.0	 0.0	 0.0	 0.0	 0.0	 0.0	 0.0	 0.0	 0.0;
	1858	 4.085	 0.795	 6.0	 -6.0	 0.93915	 100.0	 1	 9.6	 1.92	 0.0	 0.0	 0.0	 0.0	 0.0	 0.0	 0.0	 0.0	 0.0	 0.0	 0.0;
	134	 25.0	 11.904	 13.0	 -9.0	 1.05845	 100.0	 1	 25.0	 5.0	 0.0	 0.0	 0.0	 0.0	 0.0	 0.0	 0.0	 0.0	 0.0	 0.0	 0.0;
	1204	 20.213	 -7.381	 25.0	 -20.0	 1.04414	 100.0	 1	 42.0	 8.4	 0.0	 0.0	 0.0	 0.0	 0.0	 0.0	 0.0	 0.0	 0.0	 0.0	 0.0;
	1204	 20.213	 -7.381	 25.0	 -20.0	 1.04414	 100.0	 1	 42.0	 8.4	 0.0	 0.0	 0.0	 0.0	 0.0	 0.0	 0.0	 0.0	 0.0	 0.0	 0.0;
...
];

%% generator cost data
%	2	startup	shutdown	n	c(n-1)	...	c0
mpc.gencost = [
	2	 0.0	 0.0	 3	   0.000000	   2.000000	   0.000000;
	2	 0.0	 0.0	 3	   0.000000	   1.000000	   0.000000;
	2	 0.0	 0.0	 3	   0.000000	   1.000000	   0.000000;
	2	 0.0	 0.0	 3	   0.000000	   1.000000	   0.000000;
	2	 0.0	 0.0	 3	   0.000000	   1.000000	   0.000000;
	2	 0.0	 0.0	 3	   0.000000	   1.000000	   0.000000;
	2	 0.0	 0.0	 3	   0.000000	   1.000000	   0.000000;
	2	 0.0	 0.0	 3	   0.000000	   1.000000	   0.000000;
	2	 0.0	 0.0	 3	   0.000000	   1.000000	   0.000000;
	2	 0.0	 0.0	 3	   0.000000	   1.000000	   0.000000;
	2	 0.0	 0.0	 3	   0.000000	   2.000000	   0.000000;
	2	 0.0	 0.0	 3	   0.000000	   1.000000	   0.000000;
	2	 0.0	 0.0	 3	   0.000000	   1.000000	   0.000000;
	2	 0.0	 0.0	 3	   0.000000	   1.000000	   0.000000;
	2	 0.0	 0.0	 3	   0.000000	   1.000000	   0.000000;
	2	 0.0	 0.0	 3	   0.000000	   1.000000	   0.000000;
	2	 0.0	 0.0	 3	   0.000000	   1.000000	   0.000000;
	2	 0.0	 0.0	 3	   0.000000	   2.000000	   0.000000;
	2	 0.0	 0.0	 3	   0.000000	   2.000000	   0.000000;
	2	 0.0	 0.0	 3	   0.000000	   2.000000	   0.000000;
	2	 0.0	 0.0	 3	   0.000000	   1.000000	   0.000000;
	2	 0.0	 0.0	 3	   0.000000	   1.000000	   0.000000;
	2	 0.0	 0.0	 3	   0.000000	   1.000000	   0.000000;
	2	 0.0	 0.0	 3	   0.000000	   1.000000	   0.000000;
	2	 0.0	 0.0	 3	   0.000000	   1.000000	   0.000000;
	2	 0.0	 0.0	 3	   0.000000	   1.000000	   0.000000;
	2	 0.0	 0.0	 3	   0.000000	   1.000000	   0.000000;
	2	 0.0	 0.0	 3	   0.000000	   1.000000	   0.000000;
	2	 0.0	 0.0	 3	   0.000000	   1.000000	   0.000000;
	2	 0.0	 0.0	 3	   0.000000	   1.000000	   0.000000;
	2	 0.0	 0.0	 3	   0.000000	   1.000000	   0.000000;
	2	 0.0	 0.0	 3	   0.000000	   1.000000	   0.000000;
	2	 0.0	 0.0	 3	   0.000000	   1.000000	   0.000000;
	2	 0.0	 0.0	 3	   0.000000	   1.000000	   0.000000;
	2	 0.0	 0.0	 3	   0.000000	   1.000000	   0.000000;
	2	 0.0	 0.0	 3	   0.000000	   1.000000	   0.000000;
	2	 0.0	 0.0	 3	   0.000000	   1.000000	   0.000000;
	2	 0.0	 0.0	 3	   0.000000	   1.000000	   0.000000;
	2	 0.0	 0.0	 3	   0.000000	   1.000000	   0.000000;
	2	 0.0	 0.0	 3	   0.000000	   1.000000	   0.000000;
	2	 0.0	 0.0	 3	   0.000000	   1.000000	   0.000000;
	2	 0.0	 0.0	 3	   0.000000	   1.000000	   0.000000;
	2	 0.0	 0.0	 3	   0.000000	   2.000000	   0.000000;
	2	 0.0	 0.0	 3	   0.000000	   2.000000	   0.000000;
	2	 0.0	 0.0	 3	   0.000000	   1.000000	   0.000000;
	2	 0.0	 0.0	 3	   0.000000	   1.000000	   0.000000;
	2	 0.0	 0.0	 3	   0.000000	   1.000000	   0.000000;
	2	 0.0	 0.0	 3	   0.000000	   1.000000	   0.000000;
	2	 0.0	 0.0	 3	   0.000000	   1.000000	   0.000000;
	2	 0.0	 0.0	 3	   0.000000	   2.000000	   0.000000;
	2	 0.0	 0.0	 3	   0.000000	   1.000000	   0.000000;
	2	 0.0	 0.0	 3	   0.000000	   1.000000	   0.000000;
	2	 0.0	 0.0	 3	   0.000000	   1.000000	   0.000000;
	2	 0.0	 0.0	 3	   0.000000	   1.000000	   0.000000;
	2	 0.0	 0.0	 3	   0.000000	   1.000000	   0.000000;
	2	 0.0	 0.0	 3	   0.000000	   1.000000	   0.000000;
	2	 0.0	 0.0	 3	   0.000000	   1.000000	   0.000000;
	2	 0.0	 0.0	 3	   0.000000	   1.000000	   0.000000;
	2	 0.0	 0.0	 3	   0.000000	   1.000000	   0.000000;
	2	 0.0	 0.0	 3	   0.000000	   1.000000	   0.000000;
	2	 0.0	 0.0	 3	   0.000000	   1.000000	   0.000000;
	2	 0.0	 0.0	 3	   0.000000	   1.000000	   0.000000;
	2	 0.0	 0.0	 3	   0.000000	   1.000000	   0.000000;
	2	 0.0	 0.0	 3	   0.000000	   1.000000	   0.000000;
	2	 0.0	 0.0	 3	   0.000000	   1.000000	   0.000000;
	2	 0.0	 0.0	 3	   0.000000	   2.000000	   0.000000;
	2	 0.0	 0.0	 3	   0.000000	   1.000000	   0.000000;
	2	 0.0	 0.0	 3	   0.000000	   1.000000	   0.000000;
	2	 0.0	 0.0	 3	   0.000000	   1.000000	   0.000000;
	2	 0.0	 0.0	 3	   0.000000	   1.000000	   0.000000;
	2	 0.0	 0.0	 3	   0.000000	   1.000000	   0.000000;
	2	 0.0	 0.0	 3	   0.000000	   1.000000	   0.000000;
	2	 0.0	 0.0	 3	   0.000000	   1.000000	   0.000000;
	2	 0.0	 0.0	 3	   0.000000	   1.000000	   0.000000;
	2	 0.0	 0.0	 3	   0.000000	   1.000000	   0.000000;
	2	 0.0	 0.0	 3	   0.000000	   1.000000	   0.000000;
	2	 0.0	 0.0	 3	   0.000000	   1.000000	   0.000000;
	2	 0.0	 0.0	 3	   0.000000	   1.000000	   0.000000;
	2	 0.0	 0.0	 3	   0.000000	   1.000000	   0.000000;
	2	 0.0	 0.0	 3	   0.000000	   1.000000	   0.000000;
	2	 0.0	 0.0	 3	   0.000000	   1.000000	   0.000000;
	2	 0.0	 0.0	 3	   0.000000	   1.000000	   0.000000;
	2	 0.0	 0.0	 3	   0.000000	   1.000000	   0.000000;
	2	 0.0	 0.0	 3	   0.000000	   1.000000	   0.000000;
	2	 0.0	 0.0	 3	   0.000000	   1.000000	   0.000000;
	2	 0.0	 0.0	 3	   0.000000	   1.000000	   0.000000;
	2	 0.0	 0.0	 3	   0.000000	   1.000000	   0.000000;
	2	 0.0	 0.0	 3	   0.000000	   1.000000	   0.000000;
	2	 0.0	 0.0	 3	   0.000000	   1.000000	   0.000000;
	2	 0.0	 0.0	 3	   0.000000	   1.000000	   0.000000;
	2	 0.0	 0.0	 3	   0.000000	   1.000000	   0.000000;
	2	 0.0	 0.0	 3	   0.000000	   1.000000	   0.000000;
	2	 0.0	 0.0	 3	   0.000000	   2.000000	   0.000000;
	2	 0.0	 0.0	 3	   0.000000	   1.000000	   0.000000;
	2	 0.0	 0.0	 3	   0.000000	   1.000000	   0.000000;
	2	 0.0	 0.0	 3	   0.000000	   1.000000	   0.000000;
	2	 0.0	 0.0	 3	   0.000000	   2.000000	   0.000000;
	2	 0.0	 0.0	 3	   0.000000	   1.000000	   0.000000;
	2	 0.0	 0.0	 3	   0.000000	   1.000000	   0.000000;
	2	 0.0	 0.0	 3	   0.000000	   1.000000	   0.000000;
	2	 0.0	 0.0	 3	   0.000000	   1.000000	   0.000000;
	2	 0.0	 0.0	 3	   0.000000	   1.000000	   0.000000;
	2	 0.0	 0.0	 3	   0.000000	   1.000000	   0.000000;
	2	 0.0	 0.0	 3	   0.000000	   1.000000	   0.000000;
	2	 0.0	 0.0	 3	   0.000000	   1.000000	   0.000000;
	2	 0.0	 0.0	 3	   0.000000	   1.000000	   0.000000;
	2	 0.0	 0.0	 3	   0.000000	   1.000000	   0.000000;
	2	 0.0	 0.0	 3	   0.000000	   1.000000	   0.000000;
	2	 0.0	 0.0	 3	   0.000000	   1.000000	   0.000000;
	2	 0.0	 0.0	 3	   0.000000	   1.000000	   0.000000;
	2	 0.0	 0.0	 3	   0.000000	   1.000000	   0.000000;
	2	 0.0	 0.0	 3	   0.000000	   1.000000	   0.000000;
	2	 0.0	 0.0	 3	   0.000000	   1.000000	   0.000000;
	2	 0.0	 0.0	 3	   0.000000	   1.000000	   0.000000;
	2	 0.0	 0.0	 3	   0.000000	   1.000000	   0.000000;
	2	 0.0	 0.0	 3	   0.000000	   1.000000	   0.000000;
	2	 0.0	 0.0	 3	   0.000000	   1.000000	   0.000000;
	2	 0.0	 0.0	 3	   0.000000	   1.000000	   0.000000;
	2	 0.0	 0.0	 3	   0.000000	   1.000000	   0.000000;
	2	 0.0	 0.0	 3	   0.000000	   1.000000	   0.000000;
	2	 0.0	 0.0	 3	   0.000000	   1.000000	   0.000000;
	2	 0.0	 0.0	 3	   0.000000	   1.000000	   0.000000;
	2	 0.0	 0.0	 3	   0.000000	   1.000000	   0.000000;
	2	 0.0	 0.0	 3	   0.000000	   1.000000	   0.000000;
	2	 0.0	 0.0	 3	   0.000000	   1.000000	   0.000000;
	2	 0.0	 0.0	 3	   0.000000	   1.000000	   0.000000;
	2	 0.0	 0.0	 3	   0.000000	   1.000000	   0.000000;
	2	 0.0	 0.0	 3	   0.000000	   1.000000	   0.000000;
	2	 0.0	 0.0	 3	   0.000000	   1.000000	   0.000000;
	2	 0.0	 0.0	 3	   0.000000	   1.000000	   0.000000;
	2	 0.0	 0.0	 3	   0.000000	   1.000000	   0.000000;
	2	 0.0	 0.0	 3	   0.000000	   1.000000	   0.000000;
	2	 0.0	 0.0	 3	   0.000000	   2.000000	   0.000000;
	2	 0.0	 0.0	 3	   0.000000	   2.000000	   0.000000;
	2	 0.0	 0.0	 3	   0.000000	   1.000000	   0.000000;
	2	 0.0	 0.0	 3	   0.000000	   1.000000	   0.000000;
	2	 0.0	 0.0	 3	   0.000000	   1.000000	   0.000000;
	2	 0.0	 0.0	 3	   0.000000	   1.000000	   0.000000;
	2	 0.0	 0.0	 3	   0.000000	   1.000000	   0.000000;
	2	 0.0	 0.0	 3	   0.000000	   1.000000	   0.000000;
	2	 0.0	 0.0	 3	   0.000000	   1.000000	   0.000000;
	2	 0.0	 0.0	 3	   0.000000	   1.000000	   0.000000;
	2	 0.0	 0.0	 3	   0.000000	   1.000000	   0.000000;
	2	 0.0	 0.0	 3	   0.000000	   1.000000	   0.000000;
	2	 0.0	 0.0	 3	   0.000000	   1.000000	   0.000000;
	2	 0.0	 0.0	 3	   0.000000	   1.000000	   0.000000;
	2	 0.0	 0.0	 3	   0.000000	   1.000000	   0.000000;
	2	 0.0	 0.0	 3	   0.000000	   2.000000	   0.000000;
	2	 0.0	 0.0	 3	   0.000000	   1.000000	   0.000000;
	2	 0.0	 0.0	 3	   0.000000	   1.000000	   0.000000;
	2	 0.0	 0.0	 3	   0.000000	   1.000000	   0.000000;
	2	 0.0	 0.0	 3	   0.000000	   2.000000	   0.000000;
	2	 0.0	 0.0	 3	   0.000000	   1.000000	   0.000000;
	2	 0.0	 0.0	 3	   0.000000	   1.000000	   0.000000;
	2	 0.0	 0.0	 3	   0.000000	   2.000000	   0.000000;
	2	 0.0	 0.0	 3	   0.000000	   2.000000	   0.000000;
	2	 0.0	 0.0	 3	   0.000000	   1.000000	   0.000000;
	2	 0.0	 0.0	 3	   0.000000	   1.000000	   0.000000;
	2	 0.0	 0.0	 3	   0.000000	   1.000000	   0.000000;
	2	 0.0	 0.0	 3	   0.000000	   1.000000	   0.000000;
	2	 0.0	 0.0	 3	   0.000000	   1.000000	   0.000000;
	2	 0.0	 0.0	 3	   0.000000	   1.000000	   0.000000;
	2	 0.0	 0.0	 3	   0.000000	   1.000000	   0.000000;
	2	 0.0	 0.0	 3	   0.000000	   1.000000	   0.000000;
	2	 0.0	 0.0	 3	   0.000000	   1.000000	   0.000000;
	2	 0.0	 0.0	 3	   0.000000	   1.000000	   0.000000;
	2	 0.0	 0.0	 3	   0.000000	   1.000000	   0.000000;
	2	 0.0	 0.0	 3	   0.000000	   1.000000	   0.000000;
	2	 0.0	 0.0	 3	   0.000000	   1.000000	   0.000000;
	2	 0.0	 0.0	 3	   0.000000	   1.000000	   0.000000;
	2	 0.0	 0.0	 3	   0.000000	   1.000000	   0.000000;
	2	 0.0	 0.0	 3	   0.000000	   1.000000	   0.000000;
	2	 0.0	 0.0	 3	   0.000000	   1.000000	   0.000000;
	2	 0.0	 0.0	 3	   0.000000	   1.000000	   0.000000;
	2	 0.0	 0.0	 3	   0.000000	   1.000000	   0.000000;
	2	 0.0	 0.0	 3	   0.000000	   1.000000	   0.000000;
	2	 0.0	 0.0	 3	   0.000000	   1.000000	   0.000000;
	2	 0.0	 0.0	 3	   0.000000	   1.000000	   0.000000;
	2	 0.0	 0.0	 3	   0.000000	   1.000000	   0.000000;
	2	 0.0	 0.0	 3	   0.000000	   1.000000	   0.000000;
	2	 0.0	 0.0	 3	   0.000000	   1.000000	   0.000000;
	2	 0.0	 0.0	 3	   0.000000	   1.000000	   0.000000;
	2	 0.0	 0.0	 3	   0.000000	   1.000000	   0.000000;
	2	 0.0	 0.0	 3	   0.000000	   1.000000	   0.000000;
	2	 0.0	 0.0	 3	   0.000000	   1.000000	   0.000000;
	2	 0.0	 0.0	 3	   0.000000	   1.000000	   0.000000;
	2	 0.0	 0.0	 3	   0.000000	   1.000000	   0.000000;
	2	 0.0	 0.0	 3	   0.000000	   1.000000	   0.000000;
	2	 0.0	 0.0	 3	   0.000000	   1.000000	   0.000000;
	2	 0.0	 0.0	 3	   0.000000	   1.000000	   0.000000;
	2	 0.0	 0.0	 3	   0.000000	   1.000000	   0.000000;
	2	 0.0	 0.0	 3	   0.000000	   1.000000	   0.000000;
	2	 0.0	 0.0	 3	   0.000000	   1.000000	   0.000000;
	2	 0.0	 0.0	 3	   0.000000	   1.000000	   0.000000;
	2	 0.0	 0.0	 3	   0.000000	   1.000000	   0.000000;
	2	 0.0	 0.0	 3	   0.000000	   1.000000	   0.000000;
	2	 0.0	 0.0	 3	   0.000000	   1.000000	   0.000000;
	2	 0.0	 0.0	 3	   0.000000	   1.000000	   0.000000;
	2	 0.0	 0.0	 3	   0.000000	   1.000000	   0.000000;
	2	 0.0	 0.0	 3	   0.000000	   1.000000	   0.000000;
...
];

%% branch data
%	fbus	tbus	r	x	b	rateA	rateB	rateC	ratio	angle	status	angmin	angmax
mpc.branch = [
	639	 1	 0.005799	 0.010615	 0.0075	 2441	 2441	 2441	 1.0	 0.0	 1	 -30.0	 30.0;
	2771	 2	 0.002607	 0.017462	 0.0324	 540.0	 540.0	 540.0	 1.0	 0.0	 1	 -30.0	 30.0;
	2575	 3	 2.1e-05	 0.000125	 0.1386	 737.0	 737.0	 737.0	 1.0	 0.0	 1	 -30.0	 30.0;
	875	 3	 0.000145	 0.001877	 0.0635	 2487.0	 2487.0	 2487.0	 1.0	 0.0	 1	 -30.0	 30.0;
	1710	 3	 0.000319	 0.003234	 0.0838	 1841.0	 1841.0	 1841.0	 1.0	 0.0	 1	 -30.0	 30.0;
	46	 3	 2.1e-05	 0.000125	 0.1386	 737.0	 737.0	 737.0	 1.0	 0.0	 1	 -30.0	 30.0;
	1073	 4	 0.037541	 0.100529	 0.0011	 284	 284	 284	 1.0	 0.0	 1	 -30.0	 30.0;
	1533	 4	 0.090199	 0.211388	 0.0023	 133	 133	 133	 1.0	 0.0	 1	 -30.0	 30.0;
	1658	 4	 0.09801	 0.267574	 0.0	 107	 107	 107	 1.0	 0.0	 1	 -30.0	 30.0;
	1370	 5	 0.009383	 0.019753	 0.0	 1194	 1194	 1194	 1.0	 0.0	 1	 -30.0	 30.0;
	1370	 6	 0.001975	 0.004444	 0.0	 5369	 5369	 5369	 1.0	 0.0	 1	 -30.0	 30.0;
	199	 7	 0.006163	 0.041067	 0.0759	 446.0	 446.0	 446.0	 1.0	 0.0	 1	 -30.0	 30.0;
	880	 7	 0.000652	 0.004369	 0.0081	 558.0	 558.0	 558.0	 1.0	 0.0	 1	 -30.0	 30.0;
	1061	 8	 0.067019	 0.137566	 0.0037	 193	 193	 193	 1.0	 0.0	 1	 -30.0	 30.0;
	1223	 8	 0.032754	 0.088939	 0.0039	 312	 312	 312	 1.0	 0.0	 1	 -30.0	 30.0;
	1223	 8	 0.030184	 0.080096	 0.0053	 345	 345	 345	 1.0	 0.0	 1	 -30.0	 30.0;
	1371	 10	 0.009733	 0.034089	 0.0185	 944	 944	 944	 1.0	 0.0	 1	 -30.0	 30.0;
	147	 11	 0.000277	 0.002015	 0.003	 288.0	 288.0	 288.0	 1.0	 0.0	 1	 -30.0	 30.0;
	387	 2571	 0.00881	 0.033995	 0.0607	 289.0	 289.0	 289.0	 1.0	 0.0	 1	 -30.0	 30.0;
	437	 2571	 0.004642	 0.019832	 0.0354	 255.0	 255.0	 255.0	 1.0	 0.0	 1	 -30.0	 30.0;
	955	 11	 0.008861	 0.03506	 0.0623	 288.0	 288.0	 288.0	 1.0	 0.0	 1	 -30.0	 30.0;
	991	 11	 0.006993	 0.032869	 0.0557	 255.0	 255.0	 255.0	 1.0	 0.0	 1	 -30.0	 30.0;
	1774	 2571	 0.002173	 0.008731	 0.0152	 3441	 3441	 3441	 1.0	 0.0	 1	 -30.0	 30.0;
	1817	 11	 0.00077	 0.003121	 0.0051	 9629	 9629	 9629	 1.0	 0.0	 1	 -30.0	 30.0;
	2092	 2571	 0.004109	 0.016138	 0.0284	 288.0	 288.0	 288.0	 1.0	 0.0	 1	 -30.0	 30.0;
	2591	 12	 8.3e-05	 0.000907	 0.0202	 1034.0	 1034.0	 1034.0	 1.0	 0.0	 1	 -30.0	 30.0;
	419	 12	 0.000552	 0.006726	 0.0939	 1786.0	 1786.0	 1786.0	 1.0	 0.0	 1	 -30.0	 30.0;
	808	 12	 0.000512	 0.008012	 0.2455	 2462.0	 2462.0	 2462.0	 1.0	 0.0	 1	 -30.0	 30.0;
	1158	 12	 0.001107	 0.00918	 0.1906	 1644.0	 1644.0	 1644.0	 1.0	 0.0	 1	 -30.0	 30.0;
	148	 2572	 6.2e-05	 0.000741	 0.0173	 1095.0	 1095.0	 1095.0	 1.0	 0.0	 1	 -30.0	 30.0;
	808	 12	 0.000512	 0.008019	 0.2455	 2462.0	 2462.0	 2462.0	 1.0	 0.0	 1	 -30.0	 30.0;
	808	 2572	 0.001153	 0.013123	 0.1841	 1433.0	 1433.0	 1433.0	 1.0	 0.0	 1	 -30.0	 30.0;
	167	 13	 0.000158	 0.000672	 0.0719	 331.0	 331.0	 331.0	 1.0	 0.0	 1	 -30.0	 30.0;
	1463	 13	 4.5e-05	 8.9e-05	 0.002	 268.0	 268.0	 268.0	 1.0	 0.0	 1	 -30.0	 30.0;
	820	 14	 0.033258	 0.090955	 0.001	 305	 305	 305	 1.0	 0.0	 1	 -30.0	 30.0;
	465	 15	 0.071303	 0.180902	 0.0021	 152	 152	 152	 1.0	 0.0	 1	 -30.0	 30.0;
	878	 15	 0.071554	 0.18191	 0.0021	 152	 152	 152	 1.0	 0.0	 1	 -30.0	 30.0;
	2664	 16	 0.00478	 0.028622	 0.0547	 455.0	 455.0	 455.0	 1.0	 0.0	 1	 -30.0	 30.0;
	451	 16	 0.00478	 0.028583	 0.0547	 455.0	 455.0	 455.0	 1.0	 0.0	 1	 -30.0	 30.0;
	151	 17	 0.000257	 0.000514	 0.0294	 53862	 53862	 53862	 1.0	 0.0	 1	 -30.0	 30.0;
	987	 18	 0.000257	 0.002153	 0.2147	 452.0	 452.0	 452.0	 1.0	 0.0	 1	 -30.0	 30.0;
	1264	 18	 0.000277	 0.000869	 0.0931	 481.0	 481.0	 481.0	 1.0	 0.0	 1	 -30.0	 30.0;
	1903	 19	 0.000756	 0.00252	 0.0	 11716	 11716	 11716	 1.0	 0.0	 1	 -30.0	 30.0;
	1247	 20	 0.000237	 0.00083	 0.1863	 268.0	 268.0	 268.0	 1.0	 0.0	 1	 -30.0	 30.0;
	1301	 20	 0.000178	 0.000612	 0.1377	 268.0	 268.0	 268.0	 1.0	 0.0	 1	 -30.0	 30.0;
	59	 21	 0.002568	 0.011753	 0.0203	 424.0	 424.0	 424.0	 1.0	 0.0	 1	 -30.0	 30.0;
	1908	 21	 0.002568	 0.011615	 0.0228	 290.0	 290.0	 290.0	 1.0	 0.0	 1	 -30.0	 30.0;
	591	 22	 0.102293	 0.226757	 0.0025	 122	 122	 122	 1.0	 0.0	 1	 -30.0	 30.0;
	855	 22	 0.177551	 0.405291	 0.0046	 68	 68	 68	 1.0	 0.0	 1	 -30.0	 30.0;
	1199	 22	 0.088264	 0.161566	 0.0017	 163	 163	 163	 1.0	 0.0	 1	 -30.0	 30.0;
	820	 23	 0.043336	 0.11867	 0.001	 234	 234	 234	 1.0	 0.0	 1	 -30.0	 30.0;
	1059	 23	 0.067775	 0.139834	 0.001	 191	 191	 191	 1.0	 0.0	 1	 -30.0	 30.0;
	1691	 23	 0.047367	 0.16125	 0.0021	 177	 177	 177	 1.0	 0.0	 1	 -30.0	 30.0;
	1922	 23	 0.004031	 0.016629	 0.001	 1726	 1726	 1726	 1.0	 0.0	 1	 -30.0	 30.0;
	1377	 24	 9.9e-05	 0.00077	 0.078	 379.0	 379.0	 379.0	 1.0	 0.0	 1	 -30.0	 30.0;
	1377	 2573	 9.9e-05	 0.00077	 0.077	 379.0	 379.0	 379.0	 1.0	 0.0	 1	 -30.0	 30.0;
	1908	 25	 0.000514	 0.003437	 0.0061	 290.0	 290.0	 290.0	 1.0	 0.0	 1	 -30.0	 30.0;
	1914	 25	 0.005476	 0.036879	 0.1255	 522.0	 522.0	 522.0	 1.0	 0.0	 1	 -30.0	 30.0;
	59	 25	 0.000514	 0.003457	 0.0061	 418.0	 418.0	 418.0	 1.0	 0.0	 1	 -30.0	 30.0;
	1138	 26	 0.003477	 0.01118	 0.0187	 304.0	 304.0	 304.0	 1.0	 0.0	 1	 -30.0	 30.0;
	1409	 26	 0.000612	 0.003121	 0.0152	 270.0	 270.0	 270.0	 1.0	 0.0	 1	 -30.0	 30.0;
	2755	 27	 0.013857	 0.035525	 0.0004	 775	 775	 775	 1.0	 0.0	 1	 -30.0	 30.0;
	1514	 28	 2.4e-05	 0.000144	 0.0213	 701.0	 701.0	 701.0	 1.0	 0.0	 1	 -30.0	 30.0;
	1514	 2574	 7.1e-05	 0.000162	 0.0162	 251.0	 251.0	 251.0	 1.0	 0.0	 1	 -30.0	 30.0;
	249	 29	 0.068027	 0.173091	 0.002	 159	 159	 159	 1.0	 0.0	 1	 -30.0	 30.0;
	296	 29	 0.027211	 0.068783	 0.001	 400	 400	 400	 1.0	 0.0	 1	 -30.0	 30.0;
	776	 29	 0.03099	 0.202822	 0.002	 146	 146	 146	 1.0	 0.0	 1	 -30.0	 30.0;
	1274	 30	 0.000257	 0.001165	 0.002	 405.0	 405.0	 405.0	 1.0	 0.0	 1	 -30.0	 30.0;
	1906	 31	 0.047317	 0.131595	 0.0015	 215	 215	 215	 1.0	 0.0	 1	 -30.0	 30.0;
	2686	 32	 0.075838	 0.224742	 0.0027	 125	 125	 125	 1.0	 0.0	 1	 -30.0	 30.0;
	648	 32	 0.028471	 0.089695	 0.001	 314	 314	 314	 1.0	 0.0	 1	 -30.0	 30.0;
	1337	 32	 0.080373	 0.255732	 0.003	 111	 111	 111	 1.0	 0.0	 1	 -30.0	 30.0;
	2050	 32	 0.000252	 0.000504	 0.0	 52398	 52398	 52398	 1.0	 0.0	 1	 -30.0	 30.0;
...